
---------- Begin Simulation Statistics ----------
final_tick                                81244274500                       # Number of ticks from beginning of simulation (restored from checkpoints and never reset)
host_inst_rate                                 304509                       # Simulator instruction rate (inst/s)
host_mem_usage                                 702396                       # Number of bytes of host memory used
host_op_rate                                   305107                       # Simulator op (including micro ops) rate (op/s)
host_seconds                                   328.40                       # Real time elapsed on the host
host_tick_rate                              247396210                       # Simulator tick rate (ticks/s)
sim_freq                                 1000000000000                       # Frequency of simulated ticks
sim_insts                                   100000001                       # Number of instructions simulated
sim_ops                                     100196363                       # Number of ops (including micro ops) simulated
sim_seconds                                  0.081244                       # Number of seconds simulated
sim_ticks                                 81244274500                       # Number of ticks simulated
system.cpu.branchPred.BTBCorrect                    0                       # Number of correct BTB predictions (this stat may not work properly.
system.cpu.branchPred.BTBHitPct             99.694689                       # BTB Hit Percentage
system.cpu.branchPred.BTBHits                 2095373                       # Number of BTB hits
system.cpu.branchPred.BTBLookups              2101790                       # Number of BTB lookups
system.cpu.branchPred.RASInCorrect                  5                       # Number of incorrect RAS predictions.
system.cpu.branchPred.condIncorrect             81341                       # Number of conditional branches incorrect
system.cpu.branchPred.condPredicted           3727545                       # Number of conditional branches predicted
system.cpu.branchPred.indirectHits                291                       # Number of indirect target hits.
system.cpu.branchPred.indirectLookups             808                       # Number of indirect predictor lookups.
system.cpu.branchPred.indirectMisses              517                       # Number of indirect misses.
system.cpu.branchPred.lookups                 4477613                       # Number of BP lookups
system.cpu.branchPred.usedRAS                   65338                       # Number of times the RAS was used to get a target.
system.cpu.branchPredindirectMispredicted          171                       # Number of mispredicted indirect branches.
system.cpu.committedInsts                   100000001                       # Number of instructions committed
system.cpu.committedOps                     100196363                       # Number of ops (including micro ops) committed
system.cpu.cpi                               1.624885                       # CPI: cycles per instruction
system.cpu.discardedOps                        190564                       # Number of ops (including micro ops) which were discarded before commit
system.cpu.dtb.accesses                             0                       # DTB accesses
system.cpu.dtb.align_faults                         0                       # Number of TLB faults due to alignment restrictions
system.cpu.dtb.domain_faults                        0                       # Number of TLB faults due to domain restrictions
system.cpu.dtb.flush_entries                        0                       # Number of entries that have been flushed from TLB
system.cpu.dtb.flush_tlb                            0                       # Number of times complete TLB was flushed
system.cpu.dtb.flush_tlb_asid                       0                       # Number of times TLB was flushed by ASID
system.cpu.dtb.flush_tlb_mva                        0                       # Number of times TLB was flushed by MVA
system.cpu.dtb.flush_tlb_mva_asid                   0                       # Number of times TLB was flushed by MVA & ASID
system.cpu.dtb.hits                                 0                       # DTB hits
system.cpu.dtb.inst_accesses                        0                       # ITB inst accesses
system.cpu.dtb.inst_hits                            0                       # ITB inst hits
system.cpu.dtb.inst_misses                          0                       # ITB inst misses
system.cpu.dtb.misses                               0                       # DTB misses
system.cpu.dtb.perms_faults                         0                       # Number of TLB faults due to permissions restrictions
system.cpu.dtb.prefetch_faults                      0                       # Number of TLB faults due to prefetch
system.cpu.dtb.read_accesses                        0                       # DTB read accesses
system.cpu.dtb.read_hits                            0                       # DTB read hits
system.cpu.dtb.read_misses                          0                       # DTB read misses
system.cpu.dtb.stage2_mmu.stage2_tlb.accesses            0                       # DTB accesses
system.cpu.dtb.stage2_mmu.stage2_tlb.align_faults            0                       # Number of TLB faults due to alignment restrictions
system.cpu.dtb.stage2_mmu.stage2_tlb.domain_faults            0                       # Number of TLB faults due to domain restrictions
system.cpu.dtb.stage2_mmu.stage2_tlb.flush_entries            0                       # Number of entries that have been flushed from TLB
system.cpu.dtb.stage2_mmu.stage2_tlb.flush_tlb            0                       # Number of times complete TLB was flushed
system.cpu.dtb.stage2_mmu.stage2_tlb.flush_tlb_asid            0                       # Number of times TLB was flushed by ASID
system.cpu.dtb.stage2_mmu.stage2_tlb.flush_tlb_mva            0                       # Number of times TLB was flushed by MVA
system.cpu.dtb.stage2_mmu.stage2_tlb.flush_tlb_mva_asid            0                       # Number of times TLB was flushed by MVA & ASID
system.cpu.dtb.stage2_mmu.stage2_tlb.hits            0                       # DTB hits
system.cpu.dtb.stage2_mmu.stage2_tlb.inst_accesses            0                       # ITB inst accesses
system.cpu.dtb.stage2_mmu.stage2_tlb.inst_hits            0                       # ITB inst hits
system.cpu.dtb.stage2_mmu.stage2_tlb.inst_misses            0                       # ITB inst misses
system.cpu.dtb.stage2_mmu.stage2_tlb.misses            0                       # DTB misses
system.cpu.dtb.stage2_mmu.stage2_tlb.perms_faults            0                       # Number of TLB faults due to permissions restrictions
system.cpu.dtb.stage2_mmu.stage2_tlb.prefetch_faults            0                       # Number of TLB faults due to prefetch
system.cpu.dtb.stage2_mmu.stage2_tlb.read_accesses            0                       # DTB read accesses
system.cpu.dtb.stage2_mmu.stage2_tlb.read_hits            0                       # DTB read hits
system.cpu.dtb.stage2_mmu.stage2_tlb.read_misses            0                       # DTB read misses
system.cpu.dtb.stage2_mmu.stage2_tlb.walker.walkRequestOrigin_Requested::Data            0                       # Table walker requests started/completed, data/inst
system.cpu.dtb.stage2_mmu.stage2_tlb.walker.walkRequestOrigin_Requested::Inst            0                       # Table walker requests started/completed, data/inst
system.cpu.dtb.stage2_mmu.stage2_tlb.walker.walkRequestOrigin_Requested::total            0                       # Table walker requests started/completed, data/inst
system.cpu.dtb.stage2_mmu.stage2_tlb.walker.walkRequestOrigin_Completed::Data            0                       # Table walker requests started/completed, data/inst
system.cpu.dtb.stage2_mmu.stage2_tlb.walker.walkRequestOrigin_Completed::Inst            0                       # Table walker requests started/completed, data/inst
system.cpu.dtb.stage2_mmu.stage2_tlb.walker.walkRequestOrigin_Completed::total            0                       # Table walker requests started/completed, data/inst
system.cpu.dtb.stage2_mmu.stage2_tlb.walker.walkRequestOrigin::total            0                       # Table walker requests started/completed, data/inst
system.cpu.dtb.stage2_mmu.stage2_tlb.walker.walks            0                       # Table walker walks requested
system.cpu.dtb.stage2_mmu.stage2_tlb.write_accesses            0                       # DTB write accesses
system.cpu.dtb.stage2_mmu.stage2_tlb.write_hits            0                       # DTB write hits
system.cpu.dtb.stage2_mmu.stage2_tlb.write_misses            0                       # DTB write misses
system.cpu.dtb.walker.walkRequestOrigin_Requested::Data            0                       # Table walker requests started/completed, data/inst
system.cpu.dtb.walker.walkRequestOrigin_Requested::Inst            0                       # Table walker requests started/completed, data/inst
system.cpu.dtb.walker.walkRequestOrigin_Requested::total            0                       # Table walker requests started/completed, data/inst
system.cpu.dtb.walker.walkRequestOrigin_Completed::Data            0                       # Table walker requests started/completed, data/inst
system.cpu.dtb.walker.walkRequestOrigin_Completed::Inst            0                       # Table walker requests started/completed, data/inst
system.cpu.dtb.walker.walkRequestOrigin_Completed::total            0                       # Table walker requests started/completed, data/inst
system.cpu.dtb.walker.walkRequestOrigin::total            0                       # Table walker requests started/completed, data/inst
system.cpu.dtb.walker.walks                         0                       # Table walker walks requested
system.cpu.dtb.write_accesses                       0                       # DTB write accesses
system.cpu.dtb.write_hits                           0                       # DTB write hits
system.cpu.dtb.write_misses                         0                       # DTB write misses
system.cpu.fetch2.amo_instructions                  0                       # Number of memory atomic instructions successfully decoded
system.cpu.fetch2.fp_instructions                   0                       # Number of floating point instructions successfully decoded
system.cpu.fetch2.int_instructions           42609881                       # Number of integer instructions successfully decoded
system.cpu.fetch2.load_instructions          43402142                       # Number of memory load instructions successfully decoded
system.cpu.fetch2.store_instructions         11001314                       # Number of memory store instructions successfully decoded
system.cpu.fetch2.vec_instructions                  0                       # Number of SIMD instructions successfully decoded
system.cpu.idleCycles                        30012841                       # Total number of cycles that the object has spent stopped
system.cpu.ipc                               0.615428                       # IPC: instructions per cycle
system.cpu.itb.accesses                             0                       # DTB accesses
system.cpu.itb.align_faults                         0                       # Number of TLB faults due to alignment restrictions
system.cpu.itb.domain_faults                        0                       # Number of TLB faults due to domain restrictions
system.cpu.itb.flush_entries                        0                       # Number of entries that have been flushed from TLB
system.cpu.itb.flush_tlb                            0                       # Number of times complete TLB was flushed
system.cpu.itb.flush_tlb_asid                       0                       # Number of times TLB was flushed by ASID
system.cpu.itb.flush_tlb_mva                        0                       # Number of times TLB was flushed by MVA
system.cpu.itb.flush_tlb_mva_asid                   0                       # Number of times TLB was flushed by MVA & ASID
system.cpu.itb.hits                                 0                       # DTB hits
system.cpu.itb.inst_accesses                        0                       # ITB inst accesses
system.cpu.itb.inst_hits                            0                       # ITB inst hits
system.cpu.itb.inst_misses                          0                       # ITB inst misses
system.cpu.itb.misses                               0                       # DTB misses
system.cpu.itb.perms_faults                         0                       # Number of TLB faults due to permissions restrictions
system.cpu.itb.prefetch_faults                      0                       # Number of TLB faults due to prefetch
system.cpu.itb.read_accesses                        0                       # DTB read accesses
system.cpu.itb.read_hits                            0                       # DTB read hits
system.cpu.itb.read_misses                          0                       # DTB read misses
system.cpu.itb.stage2_mmu.stage2_tlb.accesses            0                       # DTB accesses
system.cpu.itb.stage2_mmu.stage2_tlb.align_faults            0                       # Number of TLB faults due to alignment restrictions
system.cpu.itb.stage2_mmu.stage2_tlb.domain_faults            0                       # Number of TLB faults due to domain restrictions
system.cpu.itb.stage2_mmu.stage2_tlb.flush_entries            0                       # Number of entries that have been flushed from TLB
system.cpu.itb.stage2_mmu.stage2_tlb.flush_tlb            0                       # Number of times complete TLB was flushed
system.cpu.itb.stage2_mmu.stage2_tlb.flush_tlb_asid            0                       # Number of times TLB was flushed by ASID
system.cpu.itb.stage2_mmu.stage2_tlb.flush_tlb_mva            0                       # Number of times TLB was flushed by MVA
system.cpu.itb.stage2_mmu.stage2_tlb.flush_tlb_mva_asid            0                       # Number of times TLB was flushed by MVA & ASID
system.cpu.itb.stage2_mmu.stage2_tlb.hits            0                       # DTB hits
system.cpu.itb.stage2_mmu.stage2_tlb.inst_accesses            0                       # ITB inst accesses
system.cpu.itb.stage2_mmu.stage2_tlb.inst_hits            0                       # ITB inst hits
system.cpu.itb.stage2_mmu.stage2_tlb.inst_misses            0                       # ITB inst misses
system.cpu.itb.stage2_mmu.stage2_tlb.misses            0                       # DTB misses
system.cpu.itb.stage2_mmu.stage2_tlb.perms_faults            0                       # Number of TLB faults due to permissions restrictions
system.cpu.itb.stage2_mmu.stage2_tlb.prefetch_faults            0                       # Number of TLB faults due to prefetch
system.cpu.itb.stage2_mmu.stage2_tlb.read_accesses            0                       # DTB read accesses
system.cpu.itb.stage2_mmu.stage2_tlb.read_hits            0                       # DTB read hits
system.cpu.itb.stage2_mmu.stage2_tlb.read_misses            0                       # DTB read misses
system.cpu.itb.stage2_mmu.stage2_tlb.walker.walkRequestOrigin_Requested::Data            0                       # Table walker requests started/completed, data/inst
system.cpu.itb.stage2_mmu.stage2_tlb.walker.walkRequestOrigin_Requested::Inst            0                       # Table walker requests started/completed, data/inst
system.cpu.itb.stage2_mmu.stage2_tlb.walker.walkRequestOrigin_Requested::total            0                       # Table walker requests started/completed, data/inst
system.cpu.itb.stage2_mmu.stage2_tlb.walker.walkRequestOrigin_Completed::Data            0                       # Table walker requests started/completed, data/inst
system.cpu.itb.stage2_mmu.stage2_tlb.walker.walkRequestOrigin_Completed::Inst            0                       # Table walker requests started/completed, data/inst
system.cpu.itb.stage2_mmu.stage2_tlb.walker.walkRequestOrigin_Completed::total            0                       # Table walker requests started/completed, data/inst
system.cpu.itb.stage2_mmu.stage2_tlb.walker.walkRequestOrigin::total            0                       # Table walker requests started/completed, data/inst
system.cpu.itb.stage2_mmu.stage2_tlb.walker.walks            0                       # Table walker walks requested
system.cpu.itb.stage2_mmu.stage2_tlb.write_accesses            0                       # DTB write accesses
system.cpu.itb.stage2_mmu.stage2_tlb.write_hits            0                       # DTB write hits
system.cpu.itb.stage2_mmu.stage2_tlb.write_misses            0                       # DTB write misses
system.cpu.itb.walker.walkRequestOrigin_Requested::Data            0                       # Table walker requests started/completed, data/inst
system.cpu.itb.walker.walkRequestOrigin_Requested::Inst            0                       # Table walker requests started/completed, data/inst
system.cpu.itb.walker.walkRequestOrigin_Requested::total            0                       # Table walker requests started/completed, data/inst
system.cpu.itb.walker.walkRequestOrigin_Completed::Data            0                       # Table walker requests started/completed, data/inst
system.cpu.itb.walker.walkRequestOrigin_Completed::Inst            0                       # Table walker requests started/completed, data/inst
system.cpu.itb.walker.walkRequestOrigin_Completed::total            0                       # Table walker requests started/completed, data/inst
system.cpu.itb.walker.walkRequestOrigin::total            0                       # Table walker requests started/completed, data/inst
system.cpu.itb.walker.walks                         0                       # Table walker walks requested
system.cpu.itb.write_accesses                       0                       # DTB write accesses
system.cpu.itb.write_hits                           0                       # DTB write hits
system.cpu.itb.write_misses                         0                       # DTB write misses
system.cpu.numCycles                        162488549                       # number of cpu cycles simulated
system.cpu.numFetchSuspends                         0                       # Number of times Execute suspended instruction fetching
system.cpu.numWorkItemsCompleted                    0                       # number of work items this cpu completed
system.cpu.numWorkItemsStarted                      0                       # number of work items this cpu started
system.cpu.op_class_0::No_OpClass                   0      0.00%      0.00% # Class of committed instruction
system.cpu.op_class_0::IntAlu                46531400     46.44%     46.44% # Class of committed instruction
system.cpu.op_class_0::IntMult                  20720      0.02%     46.46% # Class of committed instruction
system.cpu.op_class_0::IntDiv                       0      0.00%     46.46% # Class of committed instruction
system.cpu.op_class_0::FloatAdd                     0      0.00%     46.46% # Class of committed instruction
system.cpu.op_class_0::FloatCmp                     0      0.00%     46.46% # Class of committed instruction
system.cpu.op_class_0::FloatCvt                     0      0.00%     46.46% # Class of committed instruction
system.cpu.op_class_0::FloatMult                    0      0.00%     46.46% # Class of committed instruction
system.cpu.op_class_0::FloatMultAcc                 0      0.00%     46.46% # Class of committed instruction
system.cpu.op_class_0::FloatDiv                     0      0.00%     46.46% # Class of committed instruction
system.cpu.op_class_0::FloatMisc                    0      0.00%     46.46% # Class of committed instruction
system.cpu.op_class_0::FloatSqrt                    0      0.00%     46.46% # Class of committed instruction
system.cpu.op_class_0::SimdAdd                      0      0.00%     46.46% # Class of committed instruction
system.cpu.op_class_0::SimdAddAcc                   0      0.00%     46.46% # Class of committed instruction
system.cpu.op_class_0::SimdAlu                      0      0.00%     46.46% # Class of committed instruction
system.cpu.op_class_0::SimdCmp                      0      0.00%     46.46% # Class of committed instruction
system.cpu.op_class_0::SimdCvt                      0      0.00%     46.46% # Class of committed instruction
system.cpu.op_class_0::SimdMisc                     0      0.00%     46.46% # Class of committed instruction
system.cpu.op_class_0::SimdMult                     0      0.00%     46.46% # Class of committed instruction
system.cpu.op_class_0::SimdMultAcc                  0      0.00%     46.46% # Class of committed instruction
system.cpu.op_class_0::SimdShift                    0      0.00%     46.46% # Class of committed instruction
system.cpu.op_class_0::SimdShiftAcc                 0      0.00%     46.46% # Class of committed instruction
system.cpu.op_class_0::SimdDiv                      0      0.00%     46.46% # Class of committed instruction
system.cpu.op_class_0::SimdSqrt                     0      0.00%     46.46% # Class of committed instruction
system.cpu.op_class_0::SimdFloatAdd                 0      0.00%     46.46% # Class of committed instruction
system.cpu.op_class_0::SimdFloatAlu                 0      0.00%     46.46% # Class of committed instruction
system.cpu.op_class_0::SimdFloatCmp                 0      0.00%     46.46% # Class of committed instruction
system.cpu.op_class_0::SimdFloatCvt                 0      0.00%     46.46% # Class of committed instruction
system.cpu.op_class_0::SimdFloatDiv                 0      0.00%     46.46% # Class of committed instruction
system.cpu.op_class_0::SimdFloatMisc               18      0.00%     46.46% # Class of committed instruction
system.cpu.op_class_0::SimdFloatMult                0      0.00%     46.46% # Class of committed instruction
system.cpu.op_class_0::SimdFloatMultAcc             0      0.00%     46.46% # Class of committed instruction
system.cpu.op_class_0::SimdFloatSqrt                0      0.00%     46.46% # Class of committed instruction
system.cpu.op_class_0::SimdReduceAdd                0      0.00%     46.46% # Class of committed instruction
system.cpu.op_class_0::SimdReduceAlu                0      0.00%     46.46% # Class of committed instruction
system.cpu.op_class_0::SimdReduceCmp                0      0.00%     46.46% # Class of committed instruction
system.cpu.op_class_0::SimdFloatReduceAdd            0      0.00%     46.46% # Class of committed instruction
system.cpu.op_class_0::SimdFloatReduceCmp            0      0.00%     46.46% # Class of committed instruction
system.cpu.op_class_0::SimdAes                      0      0.00%     46.46% # Class of committed instruction
system.cpu.op_class_0::SimdAesMix                   0      0.00%     46.46% # Class of committed instruction
system.cpu.op_class_0::SimdSha1Hash                 0      0.00%     46.46% # Class of committed instruction
system.cpu.op_class_0::SimdSha1Hash2                0      0.00%     46.46% # Class of committed instruction
system.cpu.op_class_0::SimdSha256Hash               0      0.00%     46.46% # Class of committed instruction
system.cpu.op_class_0::SimdSha256Hash2              0      0.00%     46.46% # Class of committed instruction
system.cpu.op_class_0::SimdShaSigma2                0      0.00%     46.46% # Class of committed instruction
system.cpu.op_class_0::SimdShaSigma3                0      0.00%     46.46% # Class of committed instruction
system.cpu.op_class_0::SimdPredAlu                  0      0.00%     46.46% # Class of committed instruction
system.cpu.op_class_0::MemRead               42693601     42.61%     89.07% # Class of committed instruction
system.cpu.op_class_0::MemWrite              10950624     10.93%    100.00% # Class of committed instruction
system.cpu.op_class_0::FloatMemRead                 0      0.00%    100.00% # Class of committed instruction
system.cpu.op_class_0::FloatMemWrite                0      0.00%    100.00% # Class of committed instruction
system.cpu.op_class_0::IprAccess                    0      0.00%    100.00% # Class of committed instruction
system.cpu.op_class_0::InstPrefetch                 0      0.00%    100.00% # Class of committed instruction
system.cpu.op_class_0::total                100196363                       # Class of committed instruction
system.cpu.tickCycles                       132475708                       # Number of cycles that the object actually ticked
system.cpu.workload.numSyscalls                    84                       # Number of system calls
system.membus.snoop_filter.hit_multi_requests            0                       # Number of requests hitting in the snoop filter with multiple (>1) holders of the requested data.
system.membus.snoop_filter.hit_multi_snoops            0                       # Number of snoops hitting in the snoop filter with multiple (>1) holders of the requested data.
system.membus.snoop_filter.hit_single_requests       113569                       # Number of requests hitting in the snoop filter with a single holder of the requested data.
system.membus.snoop_filter.hit_single_snoops            0                       # Number of snoops hitting in the snoop filter with a single holder of the requested data.
system.membus.snoop_filter.tot_requests        292957                       # Total number of requests made to the snoop filter.
system.membus.snoop_filter.tot_snoops               0                       # Total number of snoops made to the snoop filter.
system.tol2bus.snoop_filter.hit_multi_requests           70                       # Number of requests hitting in the snoop filter with multiple (>1) holders of the requested data.
system.tol2bus.snoop_filter.hit_multi_snoops            0                       # Number of snoops hitting in the snoop filter with multiple (>1) holders of the requested data.
system.tol2bus.snoop_filter.hit_single_requests       551011                       # Number of requests hitting in the snoop filter with a single holder of the requested data.
system.tol2bus.snoop_filter.hit_single_snoops         1591                       # Number of snoops hitting in the snoop filter with a single holder of the requested data.
system.tol2bus.snoop_filter.tot_requests      1104512                       # Total number of requests made to the snoop filter.
system.tol2bus.snoop_filter.tot_snoops           1591                       # Total number of snoops made to the snoop filter.
system.membus.pwrStateResidencyTicks::UNDEFINED  81244274500                       # Cumulative time (in ticks) in various power states
system.membus.trans_dist::ReadResp              51122                       # Transaction distribution
system.membus.trans_dist::WritebackDirty        65700                       # Transaction distribution
system.membus.trans_dist::CleanEvict            47862                       # Transaction distribution
system.membus.trans_dist::ReadExReq            128273                       # Transaction distribution
system.membus.trans_dist::ReadExResp           128273                       # Transaction distribution
system.membus.trans_dist::ReadSharedReq         51122                       # Transaction distribution
system.membus.pkt_count_system.l2.mem_side::system.mem_ctrls.port       472352                       # Packet count per connected master and slave (bytes)
system.membus.pkt_count::total                 472352                       # Packet count per connected master and slave (bytes)
system.membus.pkt_size_system.l2.mem_side::system.mem_ctrls.port     15686080                       # Cumulative packet size per connected master and slave (bytes)
system.membus.pkt_size::total                15686080                       # Cumulative packet size per connected master and slave (bytes)
system.membus.snoops                                0                       # Total snoops (count)
system.membus.snoopTraffic                          0                       # Total snoop traffic (bytes)
system.membus.snoop_fanout::samples            179395                       # Request fanout histogram
system.membus.snoop_fanout::mean                    0                       # Request fanout histogram
system.membus.snoop_fanout::stdev                   0                       # Request fanout histogram
system.membus.snoop_fanout::underflows              0      0.00%      0.00% # Request fanout histogram
system.membus.snoop_fanout::0                  179395    100.00%    100.00% # Request fanout histogram
system.membus.snoop_fanout::1                       0      0.00%    100.00% # Request fanout histogram
system.membus.snoop_fanout::overflows               0      0.00%    100.00% # Request fanout histogram
system.membus.snoop_fanout::min_value               0                       # Request fanout histogram
system.membus.snoop_fanout::max_value               0                       # Request fanout histogram
system.membus.snoop_fanout::total              179395                       # Request fanout histogram
system.membus.respLayer1.occupancy          964968500                       # Layer occupancy (ticks)
system.membus.respLayer1.utilization              1.2                       # Layer utilization (%)
system.membus.reqLayer0.occupancy           592615500                       # Layer occupancy (ticks)
system.membus.reqLayer0.utilization               0.7                       # Layer utilization (%)
system.tol2bus.pwrStateResidencyTicks::UNDEFINED  81244274500                       # Cumulative time (in ticks) in various power states
system.tol2bus.trans_dist::ReadResp            309789                       # Transaction distribution
system.tol2bus.trans_dist::WritebackDirty       561004                       # Transaction distribution
system.tol2bus.trans_dist::WritebackClean          302                       # Transaction distribution
system.tol2bus.trans_dist::CleanEvict          103683                       # Transaction distribution
system.tol2bus.trans_dist::ReadExReq           243714                       # Transaction distribution
system.tol2bus.trans_dist::ReadExResp          243713                       # Transaction distribution
system.tol2bus.trans_dist::ReadCleanReq           747                       # Transaction distribution
system.tol2bus.trans_dist::ReadSharedReq       309042                       # Transaction distribution
system.tol2bus.pkt_count_system.cpu.icache.mem_side::system.l2.cpu_side         1796                       # Packet count per connected master and slave (bytes)
system.tol2bus.pkt_count_system.cpu.dcache.mem_side::system.l2.cpu_side      1656218                       # Packet count per connected master and slave (bytes)
system.tol2bus.pkt_count::total               1658014                       # Packet count per connected master and slave (bytes)
system.tol2bus.pkt_size_system.cpu.icache.mem_side::system.l2.cpu_side        67136                       # Cumulative packet size per connected master and slave (bytes)
system.tol2bus.pkt_size_system.cpu.dcache.mem_side::system.l2.cpu_side     67075776                       # Cumulative packet size per connected master and slave (bytes)
system.tol2bus.pkt_size::total               67142912                       # Cumulative packet size per connected master and slave (bytes)
system.tol2bus.snoops                          113980                       # Total snoops (count)
system.tol2bus.snoopTraffic                   4204800                       # Total snoop traffic (bytes)
system.tol2bus.snoop_fanout::samples           667483                       # Request fanout histogram
system.tol2bus.snoop_fanout::mean            0.002491                       # Request fanout histogram
system.tol2bus.snoop_fanout::stdev           0.049852                       # Request fanout histogram
system.tol2bus.snoop_fanout::underflows             0      0.00%      0.00% # Request fanout histogram
system.tol2bus.snoop_fanout::0                 665820     99.75%     99.75% # Request fanout histogram
system.tol2bus.snoop_fanout::1                   1663      0.25%    100.00% # Request fanout histogram
system.tol2bus.snoop_fanout::2                      0      0.00%    100.00% # Request fanout histogram
system.tol2bus.snoop_fanout::overflows              0      0.00%    100.00% # Request fanout histogram
system.tol2bus.snoop_fanout::min_value              0                       # Request fanout histogram
system.tol2bus.snoop_fanout::max_value              1                       # Request fanout histogram
system.tol2bus.snoop_fanout::total             667483                       # Request fanout histogram
system.tol2bus.reqLayer0.occupancy         1047862000                       # Layer occupancy (ticks)
system.tol2bus.reqLayer0.utilization              1.3                       # Layer utilization (%)
system.tol2bus.respLayer1.occupancy         829134496                       # Layer occupancy (ticks)
system.tol2bus.respLayer1.utilization             1.0                       # Layer utilization (%)
system.tol2bus.respLayer0.occupancy           1120500                       # Layer occupancy (ticks)
system.tol2bus.respLayer0.utilization             0.0                       # Layer utilization (%)
system.voltage_domain.voltage                       1                       # Voltage in Volts
system.clk_domain.clock                          1000                       # Clock period in ticks
system.l2.pwrStateResidencyTicks::UNDEFINED  81244274500                       # Cumulative time (in ticks) in various power states
system.l2.demand_hits::.cpu.inst                   81                       # number of demand (read+write) hits
system.l2.demand_hits::.cpu.data               374023                       # number of demand (read+write) hits
system.l2.demand_hits::total                   374104                       # number of demand (read+write) hits
system.l2.overall_hits::.cpu.inst                  81                       # number of overall hits
system.l2.overall_hits::.cpu.data              374023                       # number of overall hits
system.l2.overall_hits::total                  374104                       # number of overall hits
system.l2.demand_misses::.cpu.inst                666                       # number of demand (read+write) misses
system.l2.demand_misses::.cpu.data             178733                       # number of demand (read+write) misses
system.l2.demand_misses::total                 179399                       # number of demand (read+write) misses
system.l2.overall_misses::.cpu.inst               666                       # number of overall misses
system.l2.overall_misses::.cpu.data            178733                       # number of overall misses
system.l2.overall_misses::total                179399                       # number of overall misses
system.l2.demand_miss_latency::.cpu.inst     50694000                       # number of demand (read+write) miss cycles
system.l2.demand_miss_latency::.cpu.data  14790440000                       # number of demand (read+write) miss cycles
system.l2.demand_miss_latency::total      14841134000                       # number of demand (read+write) miss cycles
system.l2.overall_miss_latency::.cpu.inst     50694000                       # number of overall miss cycles
system.l2.overall_miss_latency::.cpu.data  14790440000                       # number of overall miss cycles
system.l2.overall_miss_latency::total     14841134000                       # number of overall miss cycles
system.l2.demand_accesses::.cpu.inst              747                       # number of demand (read+write) accesses
system.l2.demand_accesses::.cpu.data           552756                       # number of demand (read+write) accesses
system.l2.demand_accesses::total               553503                       # number of demand (read+write) accesses
system.l2.overall_accesses::.cpu.inst             747                       # number of overall (read+write) accesses
system.l2.overall_accesses::.cpu.data          552756                       # number of overall (read+write) accesses
system.l2.overall_accesses::total              553503                       # number of overall (read+write) accesses
system.l2.demand_miss_rate::.cpu.inst        0.891566                       # miss rate for demand accesses
system.l2.demand_miss_rate::.cpu.data        0.323349                       # miss rate for demand accesses
system.l2.demand_miss_rate::total            0.324116                       # miss rate for demand accesses
system.l2.overall_miss_rate::.cpu.inst       0.891566                       # miss rate for overall accesses
system.l2.overall_miss_rate::.cpu.data       0.323349                       # miss rate for overall accesses
system.l2.overall_miss_rate::total           0.324116                       # miss rate for overall accesses
system.l2.demand_avg_miss_latency::.cpu.inst 76117.117117                       # average overall miss latency
system.l2.demand_avg_miss_latency::.cpu.data 82751.590361                       # average overall miss latency
system.l2.demand_avg_miss_latency::total 82726.960574                       # average overall miss latency
system.l2.overall_avg_miss_latency::.cpu.inst 76117.117117                       # average overall miss latency
system.l2.overall_avg_miss_latency::.cpu.data 82751.590361                       # average overall miss latency
system.l2.overall_avg_miss_latency::total 82726.960574                       # average overall miss latency
system.l2.blocked_cycles::no_mshrs                  0                       # number of cycles access was blocked
system.l2.blocked_cycles::no_targets                0                       # number of cycles access was blocked
system.l2.blocked::no_mshrs                         0                       # number of cycles access was blocked
system.l2.blocked::no_targets                       0                       # number of cycles access was blocked
system.l2.avg_blocked_cycles::no_mshrs            nan                       # average number of cycles each access was blocked
system.l2.avg_blocked_cycles::no_targets          nan                       # average number of cycles each access was blocked
system.l2.writebacks::.writebacks               65700                       # number of writebacks
system.l2.writebacks::total                     65700                       # number of writebacks
system.l2.demand_mshr_hits::.cpu.data               4                       # number of demand (read+write) MSHR hits
system.l2.demand_mshr_hits::total                   4                       # number of demand (read+write) MSHR hits
system.l2.overall_mshr_hits::.cpu.data              4                       # number of overall MSHR hits
system.l2.overall_mshr_hits::total                  4                       # number of overall MSHR hits
system.l2.demand_mshr_misses::.cpu.inst           666                       # number of demand (read+write) MSHR misses
system.l2.demand_mshr_misses::.cpu.data        178729                       # number of demand (read+write) MSHR misses
system.l2.demand_mshr_misses::total            179395                       # number of demand (read+write) MSHR misses
system.l2.overall_mshr_misses::.cpu.inst          666                       # number of overall MSHR misses
system.l2.overall_mshr_misses::.cpu.data       178729                       # number of overall MSHR misses
system.l2.overall_mshr_misses::total           179395                       # number of overall MSHR misses
system.l2.demand_mshr_miss_latency::.cpu.inst     44034000                       # number of demand (read+write) MSHR miss cycles
system.l2.demand_mshr_miss_latency::.cpu.data  13002906000                       # number of demand (read+write) MSHR miss cycles
system.l2.demand_mshr_miss_latency::total  13046940000                       # number of demand (read+write) MSHR miss cycles
system.l2.overall_mshr_miss_latency::.cpu.inst     44034000                       # number of overall MSHR miss cycles
system.l2.overall_mshr_miss_latency::.cpu.data  13002906000                       # number of overall MSHR miss cycles
system.l2.overall_mshr_miss_latency::total  13046940000                       # number of overall MSHR miss cycles
system.l2.demand_mshr_miss_rate::.cpu.inst     0.891566                       # mshr miss rate for demand accesses
system.l2.demand_mshr_miss_rate::.cpu.data     0.323342                       # mshr miss rate for demand accesses
system.l2.demand_mshr_miss_rate::total       0.324108                       # mshr miss rate for demand accesses
system.l2.overall_mshr_miss_rate::.cpu.inst     0.891566                       # mshr miss rate for overall accesses
system.l2.overall_mshr_miss_rate::.cpu.data     0.323342                       # mshr miss rate for overall accesses
system.l2.overall_mshr_miss_rate::total      0.324108                       # mshr miss rate for overall accesses
system.l2.demand_avg_mshr_miss_latency::.cpu.inst 66117.117117                       # average overall mshr miss latency
system.l2.demand_avg_mshr_miss_latency::.cpu.data 72752.077167                       # average overall mshr miss latency
system.l2.demand_avg_mshr_miss_latency::total 72727.445024                       # average overall mshr miss latency
system.l2.overall_avg_mshr_miss_latency::.cpu.inst 66117.117117                       # average overall mshr miss latency
system.l2.overall_avg_mshr_miss_latency::.cpu.data 72752.077167                       # average overall mshr miss latency
system.l2.overall_avg_mshr_miss_latency::total 72727.445024                       # average overall mshr miss latency
system.l2.replacements                         113980                       # number of replacements
system.l2.WritebackDirty_hits::.writebacks       495304                       # number of WritebackDirty hits
system.l2.WritebackDirty_hits::total           495304                       # number of WritebackDirty hits
system.l2.WritebackDirty_accesses::.writebacks       495304                       # number of WritebackDirty accesses(hits+misses)
system.l2.WritebackDirty_accesses::total       495304                       # number of WritebackDirty accesses(hits+misses)
system.l2.WritebackClean_hits::.writebacks          293                       # number of WritebackClean hits
system.l2.WritebackClean_hits::total              293                       # number of WritebackClean hits
system.l2.WritebackClean_accesses::.writebacks          293                       # number of WritebackClean accesses(hits+misses)
system.l2.WritebackClean_accesses::total          293                       # number of WritebackClean accesses(hits+misses)
system.l2.CleanEvict_mshr_misses::.writebacks         1173                       # number of CleanEvict MSHR misses
system.l2.CleanEvict_mshr_misses::total          1173                       # number of CleanEvict MSHR misses
system.l2.CleanEvict_mshr_miss_rate::.writebacks          inf                       # mshr miss rate for CleanEvict accesses
system.l2.CleanEvict_mshr_miss_rate::total          inf                       # mshr miss rate for CleanEvict accesses
system.l2.ReadExReq_hits::.cpu.data            115441                       # number of ReadExReq hits
system.l2.ReadExReq_hits::total                115441                       # number of ReadExReq hits
system.l2.ReadExReq_misses::.cpu.data          128273                       # number of ReadExReq misses
system.l2.ReadExReq_misses::total              128273                       # number of ReadExReq misses
system.l2.ReadExReq_miss_latency::.cpu.data  10864667500                       # number of ReadExReq miss cycles
system.l2.ReadExReq_miss_latency::total   10864667500                       # number of ReadExReq miss cycles
system.l2.ReadExReq_accesses::.cpu.data        243714                       # number of ReadExReq accesses(hits+misses)
system.l2.ReadExReq_accesses::total            243714                       # number of ReadExReq accesses(hits+misses)
system.l2.ReadExReq_miss_rate::.cpu.data     0.526326                       # miss rate for ReadExReq accesses
system.l2.ReadExReq_miss_rate::total         0.526326                       # miss rate for ReadExReq accesses
system.l2.ReadExReq_avg_miss_latency::.cpu.data 84699.566549                       # average ReadExReq miss latency
system.l2.ReadExReq_avg_miss_latency::total 84699.566549                       # average ReadExReq miss latency
system.l2.ReadExReq_mshr_misses::.cpu.data       128273                       # number of ReadExReq MSHR misses
system.l2.ReadExReq_mshr_misses::total         128273                       # number of ReadExReq MSHR misses
system.l2.ReadExReq_mshr_miss_latency::.cpu.data   9581937500                       # number of ReadExReq MSHR miss cycles
system.l2.ReadExReq_mshr_miss_latency::total   9581937500                       # number of ReadExReq MSHR miss cycles
system.l2.ReadExReq_mshr_miss_rate::.cpu.data     0.526326                       # mshr miss rate for ReadExReq accesses
system.l2.ReadExReq_mshr_miss_rate::total     0.526326                       # mshr miss rate for ReadExReq accesses
system.l2.ReadExReq_avg_mshr_miss_latency::.cpu.data 74699.566549                       # average ReadExReq mshr miss latency
system.l2.ReadExReq_avg_mshr_miss_latency::total 74699.566549                       # average ReadExReq mshr miss latency
system.l2.ReadCleanReq_hits::.cpu.inst             81                       # number of ReadCleanReq hits
system.l2.ReadCleanReq_hits::total                 81                       # number of ReadCleanReq hits
system.l2.ReadCleanReq_misses::.cpu.inst          666                       # number of ReadCleanReq misses
system.l2.ReadCleanReq_misses::total              666                       # number of ReadCleanReq misses
system.l2.ReadCleanReq_miss_latency::.cpu.inst     50694000                       # number of ReadCleanReq miss cycles
system.l2.ReadCleanReq_miss_latency::total     50694000                       # number of ReadCleanReq miss cycles
system.l2.ReadCleanReq_accesses::.cpu.inst          747                       # number of ReadCleanReq accesses(hits+misses)
system.l2.ReadCleanReq_accesses::total            747                       # number of ReadCleanReq accesses(hits+misses)
system.l2.ReadCleanReq_miss_rate::.cpu.inst     0.891566                       # miss rate for ReadCleanReq accesses
system.l2.ReadCleanReq_miss_rate::total      0.891566                       # miss rate for ReadCleanReq accesses
system.l2.ReadCleanReq_avg_miss_latency::.cpu.inst 76117.117117                       # average ReadCleanReq miss latency
system.l2.ReadCleanReq_avg_miss_latency::total 76117.117117                       # average ReadCleanReq miss latency
system.l2.ReadCleanReq_mshr_misses::.cpu.inst          666                       # number of ReadCleanReq MSHR misses
system.l2.ReadCleanReq_mshr_misses::total          666                       # number of ReadCleanReq MSHR misses
system.l2.ReadCleanReq_mshr_miss_latency::.cpu.inst     44034000                       # number of ReadCleanReq MSHR miss cycles
system.l2.ReadCleanReq_mshr_miss_latency::total     44034000                       # number of ReadCleanReq MSHR miss cycles
system.l2.ReadCleanReq_mshr_miss_rate::.cpu.inst     0.891566                       # mshr miss rate for ReadCleanReq accesses
system.l2.ReadCleanReq_mshr_miss_rate::total     0.891566                       # mshr miss rate for ReadCleanReq accesses
system.l2.ReadCleanReq_avg_mshr_miss_latency::.cpu.inst 66117.117117                       # average ReadCleanReq mshr miss latency
system.l2.ReadCleanReq_avg_mshr_miss_latency::total 66117.117117                       # average ReadCleanReq mshr miss latency
system.l2.ReadSharedReq_hits::.cpu.data        258582                       # number of ReadSharedReq hits
system.l2.ReadSharedReq_hits::total            258582                       # number of ReadSharedReq hits
system.l2.ReadSharedReq_misses::.cpu.data        50460                       # number of ReadSharedReq misses
system.l2.ReadSharedReq_misses::total           50460                       # number of ReadSharedReq misses
system.l2.ReadSharedReq_miss_latency::.cpu.data   3925772500                       # number of ReadSharedReq miss cycles
system.l2.ReadSharedReq_miss_latency::total   3925772500                       # number of ReadSharedReq miss cycles
system.l2.ReadSharedReq_accesses::.cpu.data       309042                       # number of ReadSharedReq accesses(hits+misses)
system.l2.ReadSharedReq_accesses::total        309042                       # number of ReadSharedReq accesses(hits+misses)
system.l2.ReadSharedReq_miss_rate::.cpu.data     0.163279                       # miss rate for ReadSharedReq accesses
system.l2.ReadSharedReq_miss_rate::total     0.163279                       # miss rate for ReadSharedReq accesses
system.l2.ReadSharedReq_avg_miss_latency::.cpu.data 77799.692826                       # average ReadSharedReq miss latency
system.l2.ReadSharedReq_avg_miss_latency::total 77799.692826                       # average ReadSharedReq miss latency
system.l2.ReadSharedReq_mshr_hits::.cpu.data            4                       # number of ReadSharedReq MSHR hits
system.l2.ReadSharedReq_mshr_hits::total            4                       # number of ReadSharedReq MSHR hits
system.l2.ReadSharedReq_mshr_misses::.cpu.data        50456                       # number of ReadSharedReq MSHR misses
system.l2.ReadSharedReq_mshr_misses::total        50456                       # number of ReadSharedReq MSHR misses
system.l2.ReadSharedReq_mshr_miss_latency::.cpu.data   3420968500                       # number of ReadSharedReq MSHR miss cycles
system.l2.ReadSharedReq_mshr_miss_latency::total   3420968500                       # number of ReadSharedReq MSHR miss cycles
system.l2.ReadSharedReq_mshr_miss_rate::.cpu.data     0.163266                       # mshr miss rate for ReadSharedReq accesses
system.l2.ReadSharedReq_mshr_miss_rate::total     0.163266                       # mshr miss rate for ReadSharedReq accesses
system.l2.ReadSharedReq_avg_mshr_miss_latency::.cpu.data 67801.024655                       # average ReadSharedReq mshr miss latency
system.l2.ReadSharedReq_avg_mshr_miss_latency::total 67801.024655                       # average ReadSharedReq mshr miss latency
system.l2.tags.pwrStateResidencyTicks::UNDEFINED  81244274500                       # Cumulative time (in ticks) in various power states
system.l2.tags.tagsinuse                 63153.335259                       # Cycle average of tags in use
system.l2.tags.total_refs                     1103265                       # Total number of references to valid blocks.
system.l2.tags.sampled_refs                    179516                       # Sample count of references to valid blocks.
system.l2.tags.avg_refs                      6.145775                       # Average number of references to valid blocks.
system.l2.tags.warmup_cycle                     77000                       # Cycle when the warmup percentage was hit.
system.l2.tags.occ_blocks::.writebacks      71.435516                       # Average occupied blocks per requestor
system.l2.tags.occ_blocks::.cpu.inst       122.811592                       # Average occupied blocks per requestor
system.l2.tags.occ_blocks::.cpu.data     62959.088151                       # Average occupied blocks per requestor
system.l2.tags.occ_percent::.writebacks      0.001090                       # Average percentage of cache occupancy
system.l2.tags.occ_percent::.cpu.inst        0.001874                       # Average percentage of cache occupancy
system.l2.tags.occ_percent::.cpu.data        0.960679                       # Average percentage of cache occupancy
system.l2.tags.occ_percent::total            0.963643                       # Average percentage of cache occupancy
system.l2.tags.occ_task_id_blocks::1024         65536                       # Occupied blocks per task id
system.l2.tags.age_task_id_blocks_1024::0            9                       # Occupied blocks per task id
system.l2.tags.age_task_id_blocks_1024::1           12                       # Occupied blocks per task id
system.l2.tags.age_task_id_blocks_1024::2           86                       # Occupied blocks per task id
system.l2.tags.age_task_id_blocks_1024::3         6130                       # Occupied blocks per task id
system.l2.tags.age_task_id_blocks_1024::4        59299                       # Occupied blocks per task id
system.l2.tags.occ_task_id_percent::1024            1                       # Percentage of cache occupancy per task id
system.l2.tags.tag_accesses                   4597284                       # Number of tag accesses
system.l2.tags.data_accesses                  4597284                       # Number of data accesses
system.cpu_voltage_domain.voltage                   1                       # Voltage in Volts
system.mem_ctrls.pwrStateResidencyTicks::UNDEFINED  81244274500                       # Cumulative time (in ticks) in various power states
system.mem_ctrls.bytes_read::.cpu.inst          42624                       # Number of bytes read from this memory
system.mem_ctrls.bytes_read::.cpu.data       11438656                       # Number of bytes read from this memory
system.mem_ctrls.bytes_read::total           11481280                       # Number of bytes read from this memory
system.mem_ctrls.bytes_inst_read::.cpu.inst        42624                       # Number of instructions bytes read from this memory
system.mem_ctrls.bytes_inst_read::total         42624                       # Number of instructions bytes read from this memory
system.mem_ctrls.bytes_written::.writebacks      4204800                       # Number of bytes written to this memory
system.mem_ctrls.bytes_written::total         4204800                       # Number of bytes written to this memory
system.mem_ctrls.num_reads::.cpu.inst             666                       # Number of read requests responded to by this memory
system.mem_ctrls.num_reads::.cpu.data          178729                       # Number of read requests responded to by this memory
system.mem_ctrls.num_reads::total              179395                       # Number of read requests responded to by this memory
system.mem_ctrls.num_writes::.writebacks        65700                       # Number of write requests responded to by this memory
system.mem_ctrls.num_writes::total              65700                       # Number of write requests responded to by this memory
system.mem_ctrls.bw_read::.cpu.inst            524640                       # Total read bandwidth from this memory (bytes/s)
system.mem_ctrls.bw_read::.cpu.data         140793380                       # Total read bandwidth from this memory (bytes/s)
system.mem_ctrls.bw_read::total             141318020                       # Total read bandwidth from this memory (bytes/s)
system.mem_ctrls.bw_inst_read::.cpu.inst       524640                       # Instruction read bandwidth from this memory (bytes/s)
system.mem_ctrls.bw_inst_read::total           524640                       # Instruction read bandwidth from this memory (bytes/s)
system.mem_ctrls.bw_write::.writebacks       51755032                       # Write bandwidth from this memory (bytes/s)
system.mem_ctrls.bw_write::total             51755032                       # Write bandwidth from this memory (bytes/s)
system.mem_ctrls.bw_total::.writebacks       51755032                       # Total bandwidth to/from this memory (bytes/s)
system.mem_ctrls.bw_total::.cpu.inst           524640                       # Total bandwidth to/from this memory (bytes/s)
system.mem_ctrls.bw_total::.cpu.data        140793380                       # Total bandwidth to/from this memory (bytes/s)
system.mem_ctrls.bw_total::total            193073052                       # Total bandwidth to/from this memory (bytes/s)
system.mem_ctrls.avgPriority_.writebacks::samples     65700.00                       # Average QoS priority value for accepted requests
system.mem_ctrls.avgPriority_.cpu.inst::samples       666.00                       # Average QoS priority value for accepted requests
system.mem_ctrls.avgPriority_.cpu.data::samples    178703.00                       # Average QoS priority value for accepted requests
system.mem_ctrls.priorityMinLatency      0.000000018750                       # per QoS priority minimum request to response latency (s)
system.mem_ctrls.priorityMaxLatency      0.012356432500                       # per QoS priority maximum request to response latency (s)
system.mem_ctrls.numReadWriteTurnArounds         3957                       # Number of turnarounds from READ to WRITE
system.mem_ctrls.numWriteReadTurnArounds         3957                       # Number of turnarounds from WRITE to READ
system.mem_ctrls.numStayReadState              438270                       # Number of times bus staying in READ state
system.mem_ctrls.numStayWriteState              61796                       # Number of times bus staying in WRITE state
system.mem_ctrls.readReqs                      179395                       # Number of read requests accepted
system.mem_ctrls.writeReqs                      65700                       # Number of write requests accepted
system.mem_ctrls.readBursts                    179395                       # Number of DRAM read bursts, including those serviced by the write queue
system.mem_ctrls.writeBursts                    65700                       # Number of DRAM write bursts, including those merged in the write queue
system.mem_ctrls.servicedByWrQ                     26                       # Number of DRAM read bursts serviced by the write queue
system.mem_ctrls.mergedWrBursts                     0                       # Number of DRAM write bursts merged with an existing one
system.mem_ctrls.neitherReadNorWriteReqs            0                       # Number of requests that are neither read nor write
system.mem_ctrls.perBankRdBursts::0             11355                       # Per bank write bursts
system.mem_ctrls.perBankRdBursts::1             11261                       # Per bank write bursts
system.mem_ctrls.perBankRdBursts::2             11329                       # Per bank write bursts
system.mem_ctrls.perBankRdBursts::3             11115                       # Per bank write bursts
system.mem_ctrls.perBankRdBursts::4             11111                       # Per bank write bursts
system.mem_ctrls.perBankRdBursts::5             11096                       # Per bank write bursts
system.mem_ctrls.perBankRdBursts::6             10992                       # Per bank write bursts
system.mem_ctrls.perBankRdBursts::7             11255                       # Per bank write bursts
system.mem_ctrls.perBankRdBursts::8             11324                       # Per bank write bursts
system.mem_ctrls.perBankRdBursts::9             11258                       # Per bank write bursts
system.mem_ctrls.perBankRdBursts::10            11351                       # Per bank write bursts
system.mem_ctrls.perBankRdBursts::11            11254                       # Per bank write bursts
system.mem_ctrls.perBankRdBursts::12            11293                       # Per bank write bursts
system.mem_ctrls.perBankRdBursts::13            11167                       # Per bank write bursts
system.mem_ctrls.perBankRdBursts::14            11040                       # Per bank write bursts
system.mem_ctrls.perBankRdBursts::15            11168                       # Per bank write bursts
system.mem_ctrls.perBankWrBursts::0              4216                       # Per bank write bursts
system.mem_ctrls.perBankWrBursts::1              4184                       # Per bank write bursts
system.mem_ctrls.perBankWrBursts::2              4186                       # Per bank write bursts
system.mem_ctrls.perBankWrBursts::3              4141                       # Per bank write bursts
system.mem_ctrls.perBankWrBursts::4              4118                       # Per bank write bursts
system.mem_ctrls.perBankWrBursts::5              4104                       # Per bank write bursts
system.mem_ctrls.perBankWrBursts::6              3959                       # Per bank write bursts
system.mem_ctrls.perBankWrBursts::7              4014                       # Per bank write bursts
system.mem_ctrls.perBankWrBursts::8              4079                       # Per bank write bursts
system.mem_ctrls.perBankWrBursts::9              4086                       # Per bank write bursts
system.mem_ctrls.perBankWrBursts::10             4093                       # Per bank write bursts
system.mem_ctrls.perBankWrBursts::11             4074                       # Per bank write bursts
system.mem_ctrls.perBankWrBursts::12             4067                       # Per bank write bursts
system.mem_ctrls.perBankWrBursts::13             4093                       # Per bank write bursts
system.mem_ctrls.perBankWrBursts::14             4105                       # Per bank write bursts
system.mem_ctrls.perBankWrBursts::15             4153                       # Per bank write bursts
system.mem_ctrls.avgRdQLen                       1.08                       # Average read queue length when enqueuing
system.mem_ctrls.avgWrQLen                      25.41                       # Average write queue length when enqueuing
system.mem_ctrls.totQLat                   2280469250                       # Total ticks spent queuing
system.mem_ctrls.totBusLat                  896845000                       # Total ticks spent in databus transfers
system.mem_ctrls.totMemAccLat              5643638000                       # Total ticks spent from burst creation until serviced by the DRAM
system.mem_ctrls.avgQLat                     12713.84                       # Average queueing delay per DRAM burst
system.mem_ctrls.avgBusLat                    5000.00                       # Average bus latency per DRAM burst
system.mem_ctrls.avgMemAccLat                31463.84                       # Average memory access latency per DRAM burst
system.mem_ctrls.numRdRetry                         0                       # Number of times read queue was full causing retry
system.mem_ctrls.numWrRetry                         0                       # Number of times write queue was full causing retry
system.mem_ctrls.readRowHits                   129820                       # Number of row buffer hits during reads
system.mem_ctrls.writeRowHits                   49720                       # Number of row buffer hits during writes
system.mem_ctrls.readRowHitRate                 72.38                       # Row buffer hit rate for reads
system.mem_ctrls.writeRowHitRate                75.68                       # Row buffer hit rate for writes
system.mem_ctrls.readPktSize::0                     0                       # Read request sizes (log2)
system.mem_ctrls.readPktSize::1                     0                       # Read request sizes (log2)
system.mem_ctrls.readPktSize::2                     0                       # Read request sizes (log2)
system.mem_ctrls.readPktSize::3                     0                       # Read request sizes (log2)
system.mem_ctrls.readPktSize::4                     0                       # Read request sizes (log2)
system.mem_ctrls.readPktSize::5                     0                       # Read request sizes (log2)
system.mem_ctrls.readPktSize::6                179395                       # Read request sizes (log2)
system.mem_ctrls.writePktSize::0                    0                       # Write request sizes (log2)
system.mem_ctrls.writePktSize::1                    0                       # Write request sizes (log2)
system.mem_ctrls.writePktSize::2                    0                       # Write request sizes (log2)
system.mem_ctrls.writePktSize::3                    0                       # Write request sizes (log2)
system.mem_ctrls.writePktSize::4                    0                       # Write request sizes (log2)
system.mem_ctrls.writePktSize::5                    0                       # Write request sizes (log2)
system.mem_ctrls.writePktSize::6                65700                       # Write request sizes (log2)
system.mem_ctrls.rdQLenPdf::0                  122488                       # What read queue length does an incoming req see
system.mem_ctrls.rdQLenPdf::1                   54790                       # What read queue length does an incoming req see
system.mem_ctrls.rdQLenPdf::2                    1769                       # What read queue length does an incoming req see
system.mem_ctrls.rdQLenPdf::3                     321                       # What read queue length does an incoming req see
system.mem_ctrls.rdQLenPdf::4                       1                       # What read queue length does an incoming req see
system.mem_ctrls.rdQLenPdf::5                       0                       # What read queue length does an incoming req see
system.mem_ctrls.rdQLenPdf::6                       0                       # What read queue length does an incoming req see
system.mem_ctrls.rdQLenPdf::7                       0                       # What read queue length does an incoming req see
system.mem_ctrls.rdQLenPdf::8                       0                       # What read queue length does an incoming req see
system.mem_ctrls.rdQLenPdf::9                       0                       # What read queue length does an incoming req see
system.mem_ctrls.rdQLenPdf::10                      0                       # What read queue length does an incoming req see
system.mem_ctrls.rdQLenPdf::11                      0                       # What read queue length does an incoming req see
system.mem_ctrls.rdQLenPdf::12                      0                       # What read queue length does an incoming req see
system.mem_ctrls.rdQLenPdf::13                      0                       # What read queue length does an incoming req see
system.mem_ctrls.rdQLenPdf::14                      0                       # What read queue length does an incoming req see
system.mem_ctrls.rdQLenPdf::15                      0                       # What read queue length does an incoming req see
system.mem_ctrls.rdQLenPdf::16                      0                       # What read queue length does an incoming req see
system.mem_ctrls.rdQLenPdf::17                      0                       # What read queue length does an incoming req see
system.mem_ctrls.rdQLenPdf::18                      0                       # What read queue length does an incoming req see
system.mem_ctrls.rdQLenPdf::19                      0                       # What read queue length does an incoming req see
system.mem_ctrls.rdQLenPdf::20                      0                       # What read queue length does an incoming req see
system.mem_ctrls.rdQLenPdf::21                      0                       # What read queue length does an incoming req see
system.mem_ctrls.rdQLenPdf::22                      0                       # What read queue length does an incoming req see
system.mem_ctrls.rdQLenPdf::23                      0                       # What read queue length does an incoming req see
system.mem_ctrls.rdQLenPdf::24                      0                       # What read queue length does an incoming req see
system.mem_ctrls.rdQLenPdf::25                      0                       # What read queue length does an incoming req see
system.mem_ctrls.rdQLenPdf::26                      0                       # What read queue length does an incoming req see
system.mem_ctrls.rdQLenPdf::27                      0                       # What read queue length does an incoming req see
system.mem_ctrls.rdQLenPdf::28                      0                       # What read queue length does an incoming req see
system.mem_ctrls.rdQLenPdf::29                      0                       # What read queue length does an incoming req see
system.mem_ctrls.rdQLenPdf::30                      0                       # What read queue length does an incoming req see
system.mem_ctrls.rdQLenPdf::31                      0                       # What read queue length does an incoming req see
system.mem_ctrls.wrQLenPdf::0                       1                       # What write queue length does an incoming req see
system.mem_ctrls.wrQLenPdf::1                       1                       # What write queue length does an incoming req see
system.mem_ctrls.wrQLenPdf::2                       1                       # What write queue length does an incoming req see
system.mem_ctrls.wrQLenPdf::3                       1                       # What write queue length does an incoming req see
system.mem_ctrls.wrQLenPdf::4                       1                       # What write queue length does an incoming req see
system.mem_ctrls.wrQLenPdf::5                       1                       # What write queue length does an incoming req see
system.mem_ctrls.wrQLenPdf::6                       1                       # What write queue length does an incoming req see
system.mem_ctrls.wrQLenPdf::7                       1                       # What write queue length does an incoming req see
system.mem_ctrls.wrQLenPdf::8                       1                       # What write queue length does an incoming req see
system.mem_ctrls.wrQLenPdf::9                       1                       # What write queue length does an incoming req see
system.mem_ctrls.wrQLenPdf::10                      1                       # What write queue length does an incoming req see
system.mem_ctrls.wrQLenPdf::11                      1                       # What write queue length does an incoming req see
system.mem_ctrls.wrQLenPdf::12                      1                       # What write queue length does an incoming req see
system.mem_ctrls.wrQLenPdf::13                      1                       # What write queue length does an incoming req see
system.mem_ctrls.wrQLenPdf::14                      1                       # What write queue length does an incoming req see
system.mem_ctrls.wrQLenPdf::15                   1142                       # What write queue length does an incoming req see
system.mem_ctrls.wrQLenPdf::16                   1149                       # What write queue length does an incoming req see
system.mem_ctrls.wrQLenPdf::17                   3143                       # What write queue length does an incoming req see
system.mem_ctrls.wrQLenPdf::18                   3889                       # What write queue length does an incoming req see
system.mem_ctrls.wrQLenPdf::19                   3897                       # What write queue length does an incoming req see
system.mem_ctrls.wrQLenPdf::20                   4162                       # What write queue length does an incoming req see
system.mem_ctrls.wrQLenPdf::21                   3967                       # What write queue length does an incoming req see
system.mem_ctrls.wrQLenPdf::22                   4019                       # What write queue length does an incoming req see
system.mem_ctrls.wrQLenPdf::23                   4004                       # What write queue length does an incoming req see
system.mem_ctrls.wrQLenPdf::24                   3986                       # What write queue length does an incoming req see
system.mem_ctrls.wrQLenPdf::25                   4226                       # What write queue length does an incoming req see
system.mem_ctrls.wrQLenPdf::26                   4015                       # What write queue length does an incoming req see
system.mem_ctrls.wrQLenPdf::27                   3990                       # What write queue length does an incoming req see
system.mem_ctrls.wrQLenPdf::28                   4083                       # What write queue length does an incoming req see
system.mem_ctrls.wrQLenPdf::29                   4000                       # What write queue length does an incoming req see
system.mem_ctrls.wrQLenPdf::30                   3974                       # What write queue length does an incoming req see
system.mem_ctrls.wrQLenPdf::31                   4054                       # What write queue length does an incoming req see
system.mem_ctrls.wrQLenPdf::32                   3981                       # What write queue length does an incoming req see
system.mem_ctrls.wrQLenPdf::33                      4                       # What write queue length does an incoming req see
system.mem_ctrls.wrQLenPdf::34                      0                       # What write queue length does an incoming req see
system.mem_ctrls.wrQLenPdf::35                      0                       # What write queue length does an incoming req see
system.mem_ctrls.wrQLenPdf::36                      0                       # What write queue length does an incoming req see
system.mem_ctrls.wrQLenPdf::37                      0                       # What write queue length does an incoming req see
system.mem_ctrls.wrQLenPdf::38                      0                       # What write queue length does an incoming req see
system.mem_ctrls.wrQLenPdf::39                      0                       # What write queue length does an incoming req see
system.mem_ctrls.wrQLenPdf::40                      0                       # What write queue length does an incoming req see
system.mem_ctrls.wrQLenPdf::41                      0                       # What write queue length does an incoming req see
system.mem_ctrls.wrQLenPdf::42                      0                       # What write queue length does an incoming req see
system.mem_ctrls.wrQLenPdf::43                      0                       # What write queue length does an incoming req see
system.mem_ctrls.wrQLenPdf::44                      0                       # What write queue length does an incoming req see
system.mem_ctrls.wrQLenPdf::45                      0                       # What write queue length does an incoming req see
system.mem_ctrls.wrQLenPdf::46                      0                       # What write queue length does an incoming req see
system.mem_ctrls.wrQLenPdf::47                      0                       # What write queue length does an incoming req see
system.mem_ctrls.wrQLenPdf::48                      0                       # What write queue length does an incoming req see
system.mem_ctrls.wrQLenPdf::49                      0                       # What write queue length does an incoming req see
system.mem_ctrls.wrQLenPdf::50                      0                       # What write queue length does an incoming req see
system.mem_ctrls.wrQLenPdf::51                      0                       # What write queue length does an incoming req see
system.mem_ctrls.wrQLenPdf::52                      0                       # What write queue length does an incoming req see
system.mem_ctrls.wrQLenPdf::53                      0                       # What write queue length does an incoming req see
system.mem_ctrls.wrQLenPdf::54                      0                       # What write queue length does an incoming req see
system.mem_ctrls.wrQLenPdf::55                      0                       # What write queue length does an incoming req see
system.mem_ctrls.wrQLenPdf::56                      0                       # What write queue length does an incoming req see
system.mem_ctrls.wrQLenPdf::57                      0                       # What write queue length does an incoming req see
system.mem_ctrls.wrQLenPdf::58                      0                       # What write queue length does an incoming req see
system.mem_ctrls.wrQLenPdf::59                      0                       # What write queue length does an incoming req see
system.mem_ctrls.wrQLenPdf::60                      0                       # What write queue length does an incoming req see
system.mem_ctrls.wrQLenPdf::61                      0                       # What write queue length does an incoming req see
system.mem_ctrls.wrQLenPdf::62                      0                       # What write queue length does an incoming req see
system.mem_ctrls.wrQLenPdf::63                      0                       # What write queue length does an incoming req see
system.mem_ctrls.bytesPerActivate::samples        65499                       # Bytes accessed per row activation
system.mem_ctrls.bytesPerActivate::mean    239.429121                       # Bytes accessed per row activation
system.mem_ctrls.bytesPerActivate::gmean   132.165067                       # Bytes accessed per row activation
system.mem_ctrls.bytesPerActivate::stdev   294.573739                       # Bytes accessed per row activation
system.mem_ctrls.bytesPerActivate::0-127        39093     59.68%     59.68% # Bytes accessed per row activation
system.mem_ctrls.bytesPerActivate::128-255         8146     12.44%     72.12% # Bytes accessed per row activation
system.mem_ctrls.bytesPerActivate::256-383         1470      2.24%     74.37% # Bytes accessed per row activation
system.mem_ctrls.bytesPerActivate::384-511         1021      1.56%     75.92% # Bytes accessed per row activation
system.mem_ctrls.bytesPerActivate::512-639         8582     13.10%     89.03% # Bytes accessed per row activation
system.mem_ctrls.bytesPerActivate::640-767         1297      1.98%     91.01% # Bytes accessed per row activation
system.mem_ctrls.bytesPerActivate::768-895          306      0.47%     91.47% # Bytes accessed per row activation
system.mem_ctrls.bytesPerActivate::896-1023          376      0.57%     92.05% # Bytes accessed per row activation
system.mem_ctrls.bytesPerActivate::1024-1151         5208      7.95%    100.00% # Bytes accessed per row activation
system.mem_ctrls.bytesPerActivate::total        65499                       # Bytes accessed per row activation
system.mem_ctrls.rdPerTurnAround::samples         3957                       # Reads before turning the bus around for writes
system.mem_ctrls.rdPerTurnAround::mean      45.326257                       # Reads before turning the bus around for writes
system.mem_ctrls.rdPerTurnAround::gmean     27.537561                       # Reads before turning the bus around for writes
system.mem_ctrls.rdPerTurnAround::stdev    100.490885                       # Reads before turning the bus around for writes
system.mem_ctrls.rdPerTurnAround::0-255          3687     93.18%     93.18% # Reads before turning the bus around for writes
system.mem_ctrls.rdPerTurnAround::256-511          259      6.55%     99.72% # Reads before turning the bus around for writes
system.mem_ctrls.rdPerTurnAround::512-767            9      0.23%     99.95% # Reads before turning the bus around for writes
system.mem_ctrls.rdPerTurnAround::1024-1279            1      0.03%     99.97% # Reads before turning the bus around for writes
system.mem_ctrls.rdPerTurnAround::4352-4607            1      0.03%    100.00% # Reads before turning the bus around for writes
[...]
system.cpu.icache.ReadReq_mshr_misses::.cpu.inst          747                       # number of ReadReq MSHR misses
system.cpu.icache.ReadReq_mshr_misses::total          747                       # number of ReadReq MSHR misses
system.cpu.icache.ReadReq_mshr_miss_latency::.cpu.inst     52685000                       # number of ReadReq MSHR miss cycles
system.cpu.icache.ReadReq_mshr_miss_latency::total     52685000                       # number of ReadReq MSHR miss cycles
system.cpu.icache.ReadReq_mshr_miss_rate::.cpu.inst     0.000077                       # mshr miss rate for ReadReq accesses
system.cpu.icache.ReadReq_mshr_miss_rate::total     0.000077                       # mshr miss rate for ReadReq accesses
system.cpu.icache.ReadReq_avg_mshr_miss_latency::.cpu.inst 70528.781794                       # average ReadReq mshr miss latency
system.cpu.icache.ReadReq_avg_mshr_miss_latency::total 70528.781794                       # average ReadReq mshr miss latency
system.cpu.icache.tags.pwrStateResidencyTicks::UNDEFINED  81244274500                       # Cumulative time (in ticks) in various power states
system.cpu.icache.tags.tagsinuse           360.332439                       # Cycle average of tags in use
system.cpu.icache.tags.total_refs             9663289                       # Total number of references to valid blocks.
system.cpu.icache.tags.sampled_refs               747                       # Sample count of references to valid blocks.
system.cpu.icache.tags.avg_refs          12936.129853                       # Average number of references to valid blocks.
system.cpu.icache.tags.warmup_cycle             87500                       # Cycle when the warmup percentage was hit.
system.cpu.icache.tags.occ_blocks::.cpu.inst   360.332439                       # Average occupied blocks per requestor
system.cpu.icache.tags.occ_percent::.cpu.inst     0.703774                       # Average percentage of cache occupancy
system.cpu.icache.tags.occ_percent::total     0.703774                       # Average percentage of cache occupancy
system.cpu.icache.tags.occ_task_id_blocks::1024          445                       # Occupied blocks per task id
system.cpu.icache.tags.age_task_id_blocks_1024::3          106                       # Occupied blocks per task id
system.cpu.icache.tags.age_task_id_blocks_1024::4          339                       # Occupied blocks per task id
system.cpu.icache.tags.occ_task_id_percent::1024     0.869141                       # Percentage of cache occupancy per task id
system.cpu.icache.tags.tag_accesses          19327325                       # Number of tag accesses
system.cpu.icache.tags.data_accesses         19327325                       # Number of data accesses
system.cpu.dtb.walker.pwrStateResidencyTicks::UNDEFINED  81244274500                       # Cumulative time (in ticks) in various power states
system.cpu.dtb.stage2_mmu.stage2_tlb.walker.pwrStateResidencyTicks::UNDEFINED  81244274500                       # Cumulative time (in ticks) in various power states
system.cpu.dcache.pwrStateResidencyTicks::UNDEFINED  81244274500                       # Cumulative time (in ticks) in various power states
system.cpu.dcache.demand_hits::.cpu.data     51468948                       # number of demand (read+write) hits
system.cpu.dcache.demand_hits::total         51468948                       # number of demand (read+write) hits
system.cpu.dcache.overall_hits::.cpu.data     51469456                       # number of overall hits
system.cpu.dcache.overall_hits::total        51469456                       # number of overall hits
system.cpu.dcache.demand_misses::.cpu.data       603486                       # number of demand (read+write) misses
system.cpu.dcache.demand_misses::total         603486                       # number of demand (read+write) misses
system.cpu.dcache.overall_misses::.cpu.data       611397                       # number of overall misses
system.cpu.dcache.overall_misses::total        611397                       # number of overall misses
system.cpu.dcache.demand_miss_latency::.cpu.data  21097459500                       # number of demand (read+write) miss cycles
system.cpu.dcache.demand_miss_latency::total  21097459500                       # number of demand (read+write) miss cycles
system.cpu.dcache.overall_miss_latency::.cpu.data  21097459500                       # number of overall miss cycles
system.cpu.dcache.overall_miss_latency::total  21097459500                       # number of overall miss cycles
system.cpu.dcache.demand_accesses::.cpu.data     52072434                       # number of demand (read+write) accesses
system.cpu.dcache.demand_accesses::total     52072434                       # number of demand (read+write) accesses
system.cpu.dcache.overall_accesses::.cpu.data     52080853                       # number of overall (read+write) accesses
system.cpu.dcache.overall_accesses::total     52080853                       # number of overall (read+write) accesses
system.cpu.dcache.demand_miss_rate::.cpu.data     0.011589                       # miss rate for demand accesses
system.cpu.dcache.demand_miss_rate::total     0.011589                       # miss rate for demand accesses
system.cpu.dcache.overall_miss_rate::.cpu.data     0.011739                       # miss rate for overall accesses
system.cpu.dcache.overall_miss_rate::total     0.011739                       # miss rate for overall accesses
system.cpu.dcache.demand_avg_miss_latency::.cpu.data 34959.318857                       # average overall miss latency
system.cpu.dcache.demand_avg_miss_latency::total 34959.318857                       # average overall miss latency
system.cpu.dcache.overall_avg_miss_latency::.cpu.data 34506.972556                       # average overall miss latency
system.cpu.dcache.overall_avg_miss_latency::total 34506.972556                       # average overall miss latency
system.cpu.dcache.blocked_cycles::no_mshrs       164053                       # number of cycles access was blocked
system.cpu.dcache.blocked_cycles::no_targets            0                       # number of cycles access was blocked
system.cpu.dcache.blocked::no_mshrs              1848                       # number of cycles access was blocked
system.cpu.dcache.blocked::no_targets               0                       # number of cycles access was blocked
system.cpu.dcache.avg_blocked_cycles::no_mshrs    88.773268                       # average number of cycles each access was blocked
system.cpu.dcache.avg_blocked_cycles::no_targets          nan                       # average number of cycles each access was blocked
system.cpu.dcache.writebacks::.writebacks       495304                       # number of writebacks
system.cpu.dcache.writebacks::total            495304                       # number of writebacks
system.cpu.dcache.demand_mshr_hits::.cpu.data        58636                       # number of demand (read+write) MSHR hits
system.cpu.dcache.demand_mshr_hits::total        58636                       # number of demand (read+write) MSHR hits
system.cpu.dcache.overall_mshr_hits::.cpu.data        58636                       # number of overall MSHR hits
system.cpu.dcache.overall_mshr_hits::total        58636                       # number of overall MSHR hits
system.cpu.dcache.demand_mshr_misses::.cpu.data       544850                       # number of demand (read+write) MSHR misses
system.cpu.dcache.demand_mshr_misses::total       544850                       # number of demand (read+write) MSHR misses
system.cpu.dcache.overall_mshr_misses::.cpu.data       552756                       # number of overall MSHR misses
system.cpu.dcache.overall_mshr_misses::total       552756                       # number of overall MSHR misses
system.cpu.dcache.demand_mshr_miss_latency::.cpu.data  18999979000                       # number of demand (read+write) MSHR miss cycles
system.cpu.dcache.demand_mshr_miss_latency::total  18999979000                       # number of demand (read+write) MSHR miss cycles
system.cpu.dcache.overall_mshr_miss_latency::.cpu.data  19549248499                       # number of overall MSHR miss cycles
system.cpu.dcache.overall_mshr_miss_latency::total  19549248499                       # number of overall MSHR miss cycles
system.cpu.dcache.demand_mshr_miss_rate::.cpu.data     0.010463                       # mshr miss rate for demand accesses
system.cpu.dcache.demand_mshr_miss_rate::total     0.010463                       # mshr miss rate for demand accesses
system.cpu.dcache.overall_mshr_miss_rate::.cpu.data     0.010613                       # mshr miss rate for overall accesses
system.cpu.dcache.overall_mshr_miss_rate::total     0.010613                       # mshr miss rate for overall accesses
system.cpu.dcache.demand_avg_mshr_miss_latency::.cpu.data 34871.944572                       # average overall mshr miss latency
system.cpu.dcache.demand_avg_mshr_miss_latency::total 34871.944572                       # average overall mshr miss latency
system.cpu.dcache.overall_avg_mshr_miss_latency::.cpu.data 35366.868020                       # average overall mshr miss latency
system.cpu.dcache.overall_avg_mshr_miss_latency::total 35366.868020                       # average overall mshr miss latency
system.cpu.dcache.replacements                 550707                       # number of replacements
system.cpu.dcache.ReadReq_hits::.cpu.data     40820730                       # number of ReadReq hits
system.cpu.dcache.ReadReq_hits::total        40820730                       # number of ReadReq hits
system.cpu.dcache.ReadReq_misses::.cpu.data       301603                       # number of ReadReq misses
system.cpu.dcache.ReadReq_misses::total        301603                       # number of ReadReq misses
system.cpu.dcache.ReadReq_miss_latency::.cpu.data   6883926500                       # number of ReadReq miss cycles
system.cpu.dcache.ReadReq_miss_latency::total   6883926500                       # number of ReadReq miss cycles
system.cpu.dcache.ReadReq_accesses::.cpu.data     41122333                       # number of ReadReq accesses(hits+misses)
system.cpu.dcache.ReadReq_accesses::total     41122333                       # number of ReadReq accesses(hits+misses)
system.cpu.dcache.ReadReq_miss_rate::.cpu.data     0.007334                       # miss rate for ReadReq accesses
system.cpu.dcache.ReadReq_miss_rate::total     0.007334                       # miss rate for ReadReq accesses
system.cpu.dcache.ReadReq_avg_miss_latency::.cpu.data 22824.462953                       # average ReadReq miss latency
system.cpu.dcache.ReadReq_avg_miss_latency::total 22824.462953                       # average ReadReq miss latency
system.cpu.dcache.ReadReq_mshr_hits::.cpu.data          467                       # number of ReadReq MSHR hits
system.cpu.dcache.ReadReq_mshr_hits::total          467                       # number of ReadReq MSHR hits
system.cpu.dcache.ReadReq_mshr_misses::.cpu.data       301136                       # number of ReadReq MSHR misses
system.cpu.dcache.ReadReq_mshr_misses::total       301136                       # number of ReadReq MSHR misses
system.cpu.dcache.ReadReq_mshr_miss_latency::.cpu.data   6556782000                       # number of ReadReq MSHR miss cycles
system.cpu.dcache.ReadReq_mshr_miss_latency::total   6556782000                       # number of ReadReq MSHR miss cycles
system.cpu.dcache.ReadReq_mshr_miss_rate::.cpu.data     0.007323                       # mshr miss rate for ReadReq accesses
system.cpu.dcache.ReadReq_mshr_miss_rate::total     0.007323                       # mshr miss rate for ReadReq accesses
system.cpu.dcache.ReadReq_avg_mshr_miss_latency::.cpu.data 21773.491047                       # average ReadReq mshr miss latency
system.cpu.dcache.ReadReq_avg_mshr_miss_latency::total 21773.491047                       # average ReadReq mshr miss latency
system.cpu.dcache.WriteReq_hits::.cpu.data     10648218                       # number of WriteReq hits
system.cpu.dcache.WriteReq_hits::total       10648218                       # number of WriteReq hits
system.cpu.dcache.WriteReq_misses::.cpu.data       301883                       # number of WriteReq misses
system.cpu.dcache.WriteReq_misses::total       301883                       # number of WriteReq misses
system.cpu.dcache.WriteReq_miss_latency::.cpu.data  14213533000                       # number of WriteReq miss cycles
system.cpu.dcache.WriteReq_miss_latency::total  14213533000                       # number of WriteReq miss cycles
system.cpu.dcache.WriteReq_accesses::.cpu.data     10950101                       # number of WriteReq accesses(hits+misses)
system.cpu.dcache.WriteReq_accesses::total     10950101                       # number of WriteReq accesses(hits+misses)
system.cpu.dcache.WriteReq_miss_rate::.cpu.data     0.027569                       # miss rate for WriteReq accesses
system.cpu.dcache.WriteReq_miss_rate::total     0.027569                       # miss rate for WriteReq accesses
system.cpu.dcache.WriteReq_avg_miss_latency::.cpu.data 47082.919542                       # average WriteReq miss latency
system.cpu.dcache.WriteReq_avg_miss_latency::total 47082.919542                       # average WriteReq miss latency
system.cpu.dcache.WriteReq_mshr_hits::.cpu.data        58169                       # number of WriteReq MSHR hits
system.cpu.dcache.WriteReq_mshr_hits::total        58169                       # number of WriteReq MSHR hits
system.cpu.dcache.WriteReq_mshr_misses::.cpu.data       243714                       # number of WriteReq MSHR misses
system.cpu.dcache.WriteReq_mshr_misses::total       243714                       # number of WriteReq MSHR misses
system.cpu.dcache.WriteReq_mshr_miss_latency::.cpu.data  12443197000                       # number of WriteReq MSHR miss cycles
system.cpu.dcache.WriteReq_mshr_miss_latency::total  12443197000                       # number of WriteReq MSHR miss cycles
system.cpu.dcache.WriteReq_mshr_miss_rate::.cpu.data     0.022257                       # mshr miss rate for WriteReq accesses
system.cpu.dcache.WriteReq_mshr_miss_rate::total     0.022257                       # mshr miss rate for WriteReq accesses
system.cpu.dcache.WriteReq_avg_mshr_miss_latency::.cpu.data 51056.553994                       # average WriteReq mshr miss latency
system.cpu.dcache.WriteReq_avg_mshr_miss_latency::total 51056.553994                       # average WriteReq mshr miss latency
system.cpu.dcache.SoftPFReq_hits::.cpu.data          508                       # number of SoftPFReq hits
system.cpu.dcache.SoftPFReq_hits::total           508                       # number of SoftPFReq hits
system.cpu.dcache.SoftPFReq_misses::.cpu.data         7911                       # number of SoftPFReq misses
system.cpu.dcache.SoftPFReq_misses::total         7911                       # number of SoftPFReq misses
system.cpu.dcache.SoftPFReq_accesses::.cpu.data         8419                       # number of SoftPFReq accesses(hits+misses)
system.cpu.dcache.SoftPFReq_accesses::total         8419                       # number of SoftPFReq accesses(hits+misses)
system.cpu.dcache.SoftPFReq_miss_rate::.cpu.data     0.939660                       # miss rate for SoftPFReq accesses
system.cpu.dcache.SoftPFReq_miss_rate::total     0.939660                       # miss rate for SoftPFReq accesses
system.cpu.dcache.SoftPFReq_mshr_misses::.cpu.data         7906                       # number of SoftPFReq MSHR misses
system.cpu.dcache.SoftPFReq_mshr_misses::total         7906                       # number of SoftPFReq MSHR misses
system.cpu.dcache.SoftPFReq_mshr_miss_latency::.cpu.data    549269499                       # number of SoftPFReq MSHR miss cycles
system.cpu.dcache.SoftPFReq_mshr_miss_latency::total    549269499                       # number of SoftPFReq MSHR miss cycles
system.cpu.dcache.SoftPFReq_mshr_miss_rate::.cpu.data     0.939066                       # mshr miss rate for SoftPFReq accesses
system.cpu.dcache.SoftPFReq_mshr_miss_rate::total     0.939066                       # mshr miss rate for SoftPFReq accesses
system.cpu.dcache.SoftPFReq_avg_mshr_miss_latency::.cpu.data 69475.018846                       # average SoftPFReq mshr miss latency
system.cpu.dcache.SoftPFReq_avg_mshr_miss_latency::total 69475.018846                       # average SoftPFReq mshr miss latency
system.cpu.dcache.LoadLockedReq_hits::.cpu.data           38                       # number of LoadLockedReq hits
system.cpu.dcache.LoadLockedReq_hits::total           38                       # number of LoadLockedReq hits
system.cpu.dcache.LoadLockedReq_accesses::.cpu.data           38                       # number of LoadLockedReq accesses(hits+misses)
system.cpu.dcache.LoadLockedReq_accesses::total           38                       # number of LoadLockedReq accesses(hits+misses)
system.cpu.dcache.StoreCondReq_hits::.cpu.data           38                       # number of StoreCondReq hits
system.cpu.dcache.StoreCondReq_hits::total           38                       # number of StoreCondReq hits
system.cpu.dcache.StoreCondReq_accesses::.cpu.data           38                       # number of StoreCondReq accesses(hits+misses)
system.cpu.dcache.StoreCondReq_accesses::total           38                       # number of StoreCondReq accesses(hits+misses)
system.cpu.dcache.tags.pwrStateResidencyTicks::UNDEFINED  81244274500                       # Cumulative time (in ticks) in various power states
system.cpu.dcache.tags.tagsinuse          2012.006461                       # Cycle average of tags in use
system.cpu.dcache.tags.total_refs            52022287                       # Total number of references to valid blocks.
system.cpu.dcache.tags.sampled_refs            552755                       # Sample count of references to valid blocks.
system.cpu.dcache.tags.avg_refs             94.114548                       # Average number of references to valid blocks.
system.cpu.dcache.tags.warmup_cycle            176500                       # Cycle when the warmup percentage was hit.
system.cpu.dcache.tags.occ_blocks::.cpu.data  2012.006461                       # Average occupied blocks per requestor
system.cpu.dcache.tags.occ_percent::.cpu.data     0.982425                       # Average percentage of cache occupancy
system.cpu.dcache.tags.occ_percent::total     0.982425                       # Average percentage of cache occupancy
system.cpu.dcache.tags.occ_task_id_blocks::1024         2048                       # Occupied blocks per task id
system.cpu.dcache.tags.age_task_id_blocks_1024::0          316                       # Occupied blocks per task id
system.cpu.dcache.tags.age_task_id_blocks_1024::1          601                       # Occupied blocks per task id
system.cpu.dcache.tags.age_task_id_blocks_1024::2         1106                       # Occupied blocks per task id
system.cpu.dcache.tags.age_task_id_blocks_1024::3           23                       # Occupied blocks per task id
system.cpu.dcache.tags.age_task_id_blocks_1024::4            2                       # Occupied blocks per task id
system.cpu.dcache.tags.occ_task_id_percent::1024            1                       # Percentage of cache occupancy per task id
system.cpu.dcache.tags.tag_accesses         104714613                       # Number of tag accesses
system.cpu.dcache.tags.data_accesses        104714613                       # Number of data accesses
system.cpu.itb.walker.pwrStateResidencyTicks::UNDEFINED  81244274500                       # Cumulative time (in ticks) in various power states
system.cpu.itb.stage2_mmu.stage2_tlb.walker.pwrStateResidencyTicks::UNDEFINED  81244274500                       # Cumulative time (in ticks) in various power states

---------- End Simulation Statistics   ----------
