
---------- Begin Simulation Statistics ----------
final_tick                                  285650000                       # Number of ticks from beginning of simulation (restored from checkpoints and never reset)
host_inst_rate                                 408853                       # Simulator instruction rate (inst/s)
host_mem_usage                                 674144                       # Number of bytes of host memory used
host_op_rate                                   464982                       # Simulator op (including micro ops) rate (op/s)
host_seconds                                     0.02                       # Real time elapsed on the host
host_tick_rate                            13810476555                       # Simulator tick rate (ticks/s)
sim_freq                                 1000000000000                       # Frequency of simulated ticks
sim_insts                                        8390                       # Number of instructions simulated
sim_ops                                          9609                       # Number of ops (including micro ops) simulated
sim_seconds                                  0.000286                       # Number of seconds simulated
sim_ticks                                   285650000                       # Number of ticks simulated
system.cpu.Branches                              1693                       # Number of branches fetched
system.cpu.committedInsts                        8390                       # Number of instructions committed
system.cpu.committedOps                          9609                       # Number of ops (including micro ops) committed
system.cpu.dtb.accesses                             0                       # DTB accesses
system.cpu.dtb.align_faults                         0                       # Number of TLB faults due to alignment restrictions
system.cpu.dtb.domain_faults                        0                       # Number of TLB faults due to domain restrictions
system.cpu.dtb.flush_entries                        0                       # Number of entries that have been flushed from TLB
system.cpu.dtb.flush_tlb                            0                       # Number of times complete TLB was flushed
system.cpu.dtb.flush_tlb_asid                       0                       # Number of times TLB was flushed by ASID
system.cpu.dtb.flush_tlb_mva                        0                       # Number of times TLB was flushed by MVA
system.cpu.dtb.flush_tlb_mva_asid                   0                       # Number of times TLB was flushed by MVA & ASID
system.cpu.dtb.hits                                 0                       # DTB hits
system.cpu.dtb.inst_accesses                        0                       # ITB inst accesses
system.cpu.dtb.inst_hits                            0                       # ITB inst hits
system.cpu.dtb.inst_misses                          0                       # ITB inst misses
system.cpu.dtb.misses                               0                       # DTB misses
system.cpu.dtb.perms_faults                         0                       # Number of TLB faults due to permissions restrictions
system.cpu.dtb.prefetch_faults                      0                       # Number of TLB faults due to prefetch
system.cpu.dtb.read_accesses                        0                       # DTB read accesses
system.cpu.dtb.read_hits                            0                       # DTB read hits
system.cpu.dtb.read_misses                          0                       # DTB read misses
system.cpu.dtb.stage2_mmu.stage2_tlb.accesses            0                       # DTB accesses
system.cpu.dtb.stage2_mmu.stage2_tlb.align_faults            0                       # Number of TLB faults due to alignment restrictions
system.cpu.dtb.stage2_mmu.stage2_tlb.domain_faults            0                       # Number of TLB faults due to domain restrictions
system.cpu.dtb.stage2_mmu.stage2_tlb.flush_entries            0                       # Number of entries that have been flushed from TLB
system.cpu.dtb.stage2_mmu.stage2_tlb.flush_tlb            0                       # Number of times complete TLB was flushed
system.cpu.dtb.stage2_mmu.stage2_tlb.flush_tlb_asid            0                       # Number of times TLB was flushed by ASID
system.cpu.dtb.stage2_mmu.stage2_tlb.flush_tlb_mva            0                       # Number of times TLB was flushed by MVA
system.cpu.dtb.stage2_mmu.stage2_tlb.flush_tlb_mva_asid            0                       # Number of times TLB was flushed by MVA & ASID
system.cpu.dtb.stage2_mmu.stage2_tlb.hits            0                       # DTB hits
system.cpu.dtb.stage2_mmu.stage2_tlb.inst_accesses            0                       # ITB inst accesses
system.cpu.dtb.stage2_mmu.stage2_tlb.inst_hits            0                       # ITB inst hits
system.cpu.dtb.stage2_mmu.stage2_tlb.inst_misses            0                       # ITB inst misses
system.cpu.dtb.stage2_mmu.stage2_tlb.misses            0                       # DTB misses
system.cpu.dtb.stage2_mmu.stage2_tlb.perms_faults            0                       # Number of TLB faults due to permissions restrictions
system.cpu.dtb.stage2_mmu.stage2_tlb.prefetch_faults            0                       # Number of TLB faults due to prefetch
system.cpu.dtb.stage2_mmu.stage2_tlb.read_accesses            0                       # DTB read accesses
system.cpu.dtb.stage2_mmu.stage2_tlb.read_hits            0                       # DTB read hits
system.cpu.dtb.stage2_mmu.stage2_tlb.read_misses            0                       # DTB read misses
system.cpu.dtb.stage2_mmu.stage2_tlb.walker.walkRequestOrigin_Requested::Data            0                       # Table walker requests started/completed, data/inst
system.cpu.dtb.stage2_mmu.stage2_tlb.walker.walkRequestOrigin_Requested::Inst            0                       # Table walker requests started/completed, data/inst
system.cpu.dtb.stage2_mmu.stage2_tlb.walker.walkRequestOrigin_Requested::total            0                       # Table walker requests started/completed, data/inst
system.cpu.dtb.stage2_mmu.stage2_tlb.walker.walkRequestOrigin_Completed::Data            0                       # Table walker requests started/completed, data/inst
system.cpu.dtb.stage2_mmu.stage2_tlb.walker.walkRequestOrigin_Completed::Inst            0                       # Table walker requests started/completed, data/inst
system.cpu.dtb.stage2_mmu.stage2_tlb.walker.walkRequestOrigin_Completed::total            0                       # Table walker requests started/completed, data/inst
system.cpu.dtb.stage2_mmu.stage2_tlb.walker.walkRequestOrigin::total            0                       # Table walker requests started/completed, data/inst
system.cpu.dtb.stage2_mmu.stage2_tlb.walker.walks            0                       # Table walker walks requested
system.cpu.dtb.stage2_mmu.stage2_tlb.write_accesses            0                       # DTB write accesses
system.cpu.dtb.stage2_mmu.stage2_tlb.write_hits            0                       # DTB write hits
system.cpu.dtb.stage2_mmu.stage2_tlb.write_misses            0                       # DTB write misses
system.cpu.dtb.walker.walkRequestOrigin_Requested::Data            0                       # Table walker requests started/completed, data/inst
system.cpu.dtb.walker.walkRequestOrigin_Requested::Inst            0                       # Table walker requests started/completed, data/inst
system.cpu.dtb.walker.walkRequestOrigin_Requested::total            0                       # Table walker requests started/completed, data/inst
system.cpu.dtb.walker.walkRequestOrigin_Completed::Data            0                       # Table walker requests started/completed, data/inst
system.cpu.dtb.walker.walkRequestOrigin_Completed::Inst            0                       # Table walker requests started/completed, data/inst
system.cpu.dtb.walker.walkRequestOrigin_Completed::total            0                       # Table walker requests started/completed, data/inst
system.cpu.dtb.walker.walkRequestOrigin::total            0                       # Table walker requests started/completed, data/inst
system.cpu.dtb.walker.walks                         0                       # Table walker walks requested
system.cpu.dtb.write_accesses                       0                       # DTB write accesses
system.cpu.dtb.write_hits                           0                       # DTB write hits
system.cpu.dtb.write_misses                         0                       # DTB write misses
system.cpu.idle_fraction                     0.000000                       # Percentage of idle cycles
system.cpu.itb.accesses                             0                       # DTB accesses
system.cpu.itb.align_faults                         0                       # Number of TLB faults due to alignment restrictions
system.cpu.itb.domain_faults                        0                       # Number of TLB faults due to domain restrictions
system.cpu.itb.flush_entries                        0                       # Number of entries that have been flushed from TLB
system.cpu.itb.flush_tlb                            0                       # Number of times complete TLB was flushed
system.cpu.itb.flush_tlb_asid                       0                       # Number of times TLB was flushed by ASID
system.cpu.itb.flush_tlb_mva                        0                       # Number of times TLB was flushed by MVA
system.cpu.itb.flush_tlb_mva_asid                   0                       # Number of times TLB was flushed by MVA & ASID
system.cpu.itb.hits                                 0                       # DTB hits
system.cpu.itb.inst_accesses                        0                       # ITB inst accesses
system.cpu.itb.inst_hits                            0                       # ITB inst hits
system.cpu.itb.inst_misses                          0                       # ITB inst misses
system.cpu.itb.misses                               0                       # DTB misses
system.cpu.itb.perms_faults                         0                       # Number of TLB faults due to permissions restrictions
system.cpu.itb.prefetch_faults                      0                       # Number of TLB faults due to prefetch
system.cpu.itb.read_accesses                        0                       # DTB read accesses
system.cpu.itb.read_hits                            0                       # DTB read hits
system.cpu.itb.read_misses                          0                       # DTB read misses
system.cpu.itb.stage2_mmu.stage2_tlb.accesses            0                       # DTB accesses
system.cpu.itb.stage2_mmu.stage2_tlb.align_faults            0                       # Number of TLB faults due to alignment restrictions
system.cpu.itb.stage2_mmu.stage2_tlb.domain_faults            0                       # Number of TLB faults due to domain restrictions
system.cpu.itb.stage2_mmu.stage2_tlb.flush_entries            0                       # Number of entries that have been flushed from TLB
system.cpu.itb.stage2_mmu.stage2_tlb.flush_tlb            0                       # Number of times complete TLB was flushed
system.cpu.itb.stage2_mmu.stage2_tlb.flush_tlb_asid            0                       # Number of times TLB was flushed by ASID
system.cpu.itb.stage2_mmu.stage2_tlb.flush_tlb_mva            0                       # Number of times TLB was flushed by MVA
system.cpu.itb.stage2_mmu.stage2_tlb.flush_tlb_mva_asid            0                       # Number of times TLB was flushed by MVA & ASID
system.cpu.itb.stage2_mmu.stage2_tlb.hits            0                       # DTB hits
system.cpu.itb.stage2_mmu.stage2_tlb.inst_accesses            0                       # ITB inst accesses
system.cpu.itb.stage2_mmu.stage2_tlb.inst_hits            0                       # ITB inst hits
system.cpu.itb.stage2_mmu.stage2_tlb.inst_misses            0                       # ITB inst misses
system.cpu.itb.stage2_mmu.stage2_tlb.misses            0                       # DTB misses
system.cpu.itb.stage2_mmu.stage2_tlb.perms_faults            0                       # Number of TLB faults due to permissions restrictions
system.cpu.itb.stage2_mmu.stage2_tlb.prefetch_faults            0                       # Number of TLB faults due to prefetch
system.cpu.itb.stage2_mmu.stage2_tlb.read_accesses            0                       # DTB read accesses
system.cpu.itb.stage2_mmu.stage2_tlb.read_hits            0                       # DTB read hits
system.cpu.itb.stage2_mmu.stage2_tlb.read_misses            0                       # DTB read misses
system.cpu.itb.stage2_mmu.stage2_tlb.walker.walkRequestOrigin_Requested::Data            0                       # Table walker requests started/completed, data/inst
system.cpu.itb.stage2_mmu.stage2_tlb.walker.walkRequestOrigin_Requested::Inst            0                       # Table walker requests started/completed, data/inst
system.cpu.itb.stage2_mmu.stage2_tlb.walker.walkRequestOrigin_Requested::total            0                       # Table walker requests started/completed, data/inst
system.cpu.itb.stage2_mmu.stage2_tlb.walker.walkRequestOrigin_Completed::Data            0                       # Table walker requests started/completed, data/inst
system.cpu.itb.stage2_mmu.stage2_tlb.walker.walkRequestOrigin_Completed::Inst            0                       # Table walker requests started/completed, data/inst
system.cpu.itb.stage2_mmu.stage2_tlb.walker.walkRequestOrigin_Completed::total            0                       # Table walker requests started/completed, data/inst
system.cpu.itb.stage2_mmu.stage2_tlb.walker.walkRequestOrigin::total            0                       # Table walker requests started/completed, data/inst
system.cpu.itb.stage2_mmu.stage2_tlb.walker.walks            0                       # Table walker walks requested
system.cpu.itb.stage2_mmu.stage2_tlb.write_accesses            0                       # DTB write accesses
system.cpu.itb.stage2_mmu.stage2_tlb.write_hits            0                       # DTB write hits
system.cpu.itb.stage2_mmu.stage2_tlb.write_misses            0                       # DTB write misses
system.cpu.itb.walker.walkRequestOrigin_Requested::Data            0                       # Table walker requests started/completed, data/inst
system.cpu.itb.walker.walkRequestOrigin_Requested::Inst            0                       # Table walker requests started/completed, data/inst
system.cpu.itb.walker.walkRequestOrigin_Requested::total            0                       # Table walker requests started/completed, data/inst
system.cpu.itb.walker.walkRequestOrigin_Completed::Data            0                       # Table walker requests started/completed, data/inst
system.cpu.itb.walker.walkRequestOrigin_Completed::Inst            0                       # Table walker requests started/completed, data/inst
system.cpu.itb.walker.walkRequestOrigin_Completed::total            0                       # Table walker requests started/completed, data/inst
system.cpu.itb.walker.walkRequestOrigin::total            0                       # Table walker requests started/completed, data/inst
system.cpu.itb.walker.walks                         0                       # Table walker walks requested
system.cpu.itb.write_accesses                       0                       # DTB write accesses
system.cpu.itb.write_hits                           0                       # DTB write hits
system.cpu.itb.write_misses                         0                       # DTB write misses
system.cpu.not_idle_fraction                 1.000000                       # Percentage of non-idle cycles
system.cpu.numCycles                            28565                       # number of cpu cycles simulated
system.cpu.numWorkItemsCompleted                    0                       # number of work items this cpu completed
system.cpu.numWorkItemsStarted                      0                       # number of work items this cpu started
system.cpu.num_busy_cycles               28564.999900                       # Number of busy cycles
system.cpu.num_cc_register_reads                32728                       # number of times the CC registers were read
system.cpu.num_cc_register_writes                5648                       # number of times the CC registers were written
system.cpu.num_conditional_control_insts         1224                       # number of instructions that are conditional controls
system.cpu.num_fp_alu_accesses                      0                       # Number of float alu accesses
system.cpu.num_fp_insts                             0                       # number of float instructions
system.cpu.num_fp_register_reads                    0                       # number of times the floating registers were read
system.cpu.num_fp_register_writes                   0                       # number of times the floating registers were written
system.cpu.num_func_calls                         312                       # number of times a function call or return occured
system.cpu.num_idle_cycles                   0.000100                       # Number of idle cycles
system.cpu.num_int_alu_accesses                  8398                       # Number of integer alu accesses
system.cpu.num_int_insts                         8398                       # number of integer instructions
system.cpu.num_int_register_reads               13753                       # number of times the integer registers were read
system.cpu.num_int_register_writes               5751                       # number of times the integer registers were written
system.cpu.num_load_insts                        1370                       # Number of load instructions
system.cpu.num_mem_refs                          2899                       # number of memory refs
system.cpu.num_store_insts                       1529                       # Number of store instructions
system.cpu.num_vec_alu_accesses                     0                       # Number of vector alu accesses
system.cpu.num_vec_insts                            0                       # number of vector instructions
system.cpu.num_vec_register_reads                  40                       # number of times the vector registers were read
system.cpu.num_vec_register_writes                 13                       # number of times the vector registers were written
system.cpu.op_class::No_OpClass                     0      0.00%      0.00% # Class of executed instruction
system.cpu.op_class::IntAlu                      6742     69.46%     69.46% # Class of executed instruction
system.cpu.op_class::IntMult                       45      0.46%     69.92% # Class of executed instruction
system.cpu.op_class::IntDiv                         0      0.00%     69.92% # Class of executed instruction
system.cpu.op_class::FloatAdd                       0      0.00%     69.92% # Class of executed instruction
system.cpu.op_class::FloatCmp                       0      0.00%     69.92% # Class of executed instruction
system.cpu.op_class::FloatCvt                       0      0.00%     69.92% # Class of executed instruction
system.cpu.op_class::FloatMult                      0      0.00%     69.92% # Class of executed instruction
system.cpu.op_class::FloatMultAcc                   0      0.00%     69.92% # Class of executed instruction
system.cpu.op_class::FloatDiv                       0      0.00%     69.92% # Class of executed instruction
system.cpu.op_class::FloatMisc                      0      0.00%     69.92% # Class of executed instruction
system.cpu.op_class::FloatSqrt                      0      0.00%     69.92% # Class of executed instruction
system.cpu.op_class::SimdAdd                        0      0.00%     69.92% # Class of executed instruction
system.cpu.op_class::SimdAddAcc                     0      0.00%     69.92% # Class of executed instruction
system.cpu.op_class::SimdAlu                        0      0.00%     69.92% # Class of executed instruction
system.cpu.op_class::SimdCmp                        0      0.00%     69.92% # Class of executed instruction
system.cpu.op_class::SimdCvt                        0      0.00%     69.92% # Class of executed instruction
system.cpu.op_class::SimdMisc                       0      0.00%     69.92% # Class of executed instruction
system.cpu.op_class::SimdMult                       0      0.00%     69.92% # Class of executed instruction
system.cpu.op_class::SimdMultAcc                    0      0.00%     69.92% # Class of executed instruction
system.cpu.op_class::SimdShift                      0      0.00%     69.92% # Class of executed instruction
system.cpu.op_class::SimdShiftAcc                   0      0.00%     69.92% # Class of executed instruction
system.cpu.op_class::SimdDiv                        0      0.00%     69.92% # Class of executed instruction
system.cpu.op_class::SimdSqrt                       0      0.00%     69.92% # Class of executed instruction
system.cpu.op_class::SimdFloatAdd                   0      0.00%     69.92% # Class of executed instruction
system.cpu.op_class::SimdFloatAlu                   0      0.00%     69.92% # Class of executed instruction
system.cpu.op_class::SimdFloatCmp                   0      0.00%     69.92% # Class of executed instruction
system.cpu.op_class::SimdFloatCvt                   0      0.00%     69.92% # Class of executed instruction
system.cpu.op_class::SimdFloatDiv                   0      0.00%     69.92% # Class of executed instruction
system.cpu.op_class::SimdFloatMisc                 21      0.22%     70.13% # Class of executed instruction
system.cpu.op_class::SimdFloatMult                  0      0.00%     70.13% # Class of executed instruction
system.cpu.op_class::SimdFloatMultAcc               0      0.00%     70.13% # Class of executed instruction
system.cpu.op_class::SimdFloatSqrt                  0      0.00%     70.13% # Class of executed instruction
system.cpu.op_class::SimdReduceAdd                  0      0.00%     70.13% # Class of executed instruction
system.cpu.op_class::SimdReduceAlu                  0      0.00%     70.13% # Class of executed instruction
system.cpu.op_class::SimdReduceCmp                  0      0.00%     70.13% # Class of executed instruction
system.cpu.op_class::SimdFloatReduceAdd             0      0.00%     70.13% # Class of executed instruction
system.cpu.op_class::SimdFloatReduceCmp             0      0.00%     70.13% # Class of executed instruction
system.cpu.op_class::SimdAes                        0      0.00%     70.13% # Class of executed instruction
system.cpu.op_class::SimdAesMix                     0      0.00%     70.13% # Class of executed instruction
system.cpu.op_class::SimdSha1Hash                   0      0.00%     70.13% # Class of executed instruction
system.cpu.op_class::SimdSha1Hash2                  0      0.00%     70.13% # Class of executed instruction
system.cpu.op_class::SimdSha256Hash                 0      0.00%     70.13% # Class of executed instruction
system.cpu.op_class::SimdSha256Hash2                0      0.00%     70.13% # Class of executed instruction
system.cpu.op_class::SimdShaSigma2                  0      0.00%     70.13% # Class of executed instruction
system.cpu.op_class::SimdShaSigma3                  0      0.00%     70.13% # Class of executed instruction
system.cpu.op_class::SimdPredAlu                    0      0.00%     70.13% # Class of executed instruction
system.cpu.op_class::MemRead                     1370     14.11%     84.25% # Class of executed instruction
system.cpu.op_class::MemWrite                    1529     15.75%    100.00% # Class of executed instruction
system.cpu.op_class::FloatMemRead                   0      0.00%    100.00% # Class of executed instruction
system.cpu.op_class::FloatMemWrite                  0      0.00%    100.00% # Class of executed instruction
system.cpu.op_class::IprAccess                      0      0.00%    100.00% # Class of executed instruction
system.cpu.op_class::InstPrefetch                   0      0.00%    100.00% # Class of executed instruction
system.cpu.op_class::total                       9707                       # Class of executed instruction
system.cpu.workload.numSyscalls                    10                       # Number of system calls
system.membus.snoop_filter.hit_multi_requests            5                       # Number of requests hitting in the snoop filter with multiple (>1) holders of the requested data.
system.membus.snoop_filter.hit_multi_snoops            0                       # Number of snoops hitting in the snoop filter with multiple (>1) holders of the requested data.
system.membus.snoop_filter.hit_single_requests           62                       # Number of requests hitting in the snoop filter with a single holder of the requested data.
system.membus.snoop_filter.hit_single_snoops            0                       # Number of snoops hitting in the snoop filter with a single holder of the requested data.
system.membus.snoop_filter.tot_requests           477                       # Total number of requests made to the snoop filter.
system.membus.snoop_filter.tot_snoops               0                       # Total number of snoops made to the snoop filter.
system.membus.pwrStateResidencyTicks::UNDEFINED    285650000                       # Cumulative time (in ticks) in various power states
system.membus.trans_dist::ReadResp                365                       # Transaction distribution
system.membus.trans_dist::WritebackClean           51                       # Transaction distribution
system.membus.trans_dist::ReadExReq                61                       # Transaction distribution
system.membus.trans_dist::ReadExResp               61                       # Transaction distribution
system.membus.trans_dist::ReadCleanReq            276                       # Transaction distribution
system.membus.trans_dist::ReadSharedReq            89                       # Transaction distribution
system.membus.pkt_count_system.cpu.icache.mem_side::system.mem_ctrls.port          603                       # Packet count per connected master and slave (bytes)
system.membus.pkt_count_system.cpu.dcache.mem_side::system.mem_ctrls.port          300                       # Packet count per connected master and slave (bytes)
system.membus.pkt_count::total                    903                       # Packet count per connected master and slave (bytes)
system.membus.pkt_size_system.cpu.icache.mem_side::system.mem_ctrls.port        20928                       # Cumulative packet size per connected master and slave (bytes)
system.membus.pkt_size_system.cpu.dcache.mem_side::system.mem_ctrls.port         9600                       # Cumulative packet size per connected master and slave (bytes)
system.membus.pkt_size::total                   30528                       # Cumulative packet size per connected master and slave (bytes)
system.membus.snoops                                0                       # Total snoops (count)
system.membus.snoopTraffic                          0                       # Total snoop traffic (bytes)
system.membus.snoop_fanout::samples               426                       # Request fanout histogram
system.membus.snoop_fanout::mean             0.037559                       # Request fanout histogram
system.membus.snoop_fanout::stdev            0.190350                       # Request fanout histogram
system.membus.snoop_fanout::underflows              0      0.00%      0.00% # Request fanout histogram
system.membus.snoop_fanout::0                     410     96.24%     96.24% # Request fanout histogram
system.membus.snoop_fanout::1                      16      3.76%    100.00% # Request fanout histogram
system.membus.snoop_fanout::2                       0      0.00%    100.00% # Request fanout histogram
system.membus.snoop_fanout::overflows               0      0.00%    100.00% # Request fanout histogram
system.membus.snoop_fanout::min_value               0                       # Request fanout histogram
system.membus.snoop_fanout::max_value               1                       # Request fanout histogram
system.membus.snoop_fanout::total                 426                       # Request fanout histogram
system.membus.reqLayer0.occupancy              681000                       # Layer occupancy (ticks)
system.membus.reqLayer0.utilization               0.2                       # Layer utilization (%)
system.membus.respLayer1.occupancy            1469750                       # Layer occupancy (ticks)
system.membus.respLayer1.utilization              0.5                       # Layer utilization (%)
system.membus.respLayer2.occupancy             805500                       # Layer occupancy (ticks)
system.membus.respLayer2.utilization              0.3                       # Layer utilization (%)
system.voltage_domain.voltage                       1                       # Voltage in Volts
system.clk_domain.clock                          1000                       # Clock period in ticks
system.cpu_voltage_domain.voltage                   1                       # Voltage in Volts
system.mem_ctrls.pwrStateResidencyTicks::UNDEFINED    285650000                       # Cumulative time (in ticks) in various power states
system.mem_ctrls.bytes_read::.cpu.inst          17664                       # Number of bytes read from this memory
system.mem_ctrls.bytes_read::.cpu.data           9600                       # Number of bytes read from this memory
system.mem_ctrls.bytes_read::total              27264                       # Number of bytes read from this memory
system.mem_ctrls.bytes_inst_read::.cpu.inst        17664                       # Number of instructions bytes read from this memory
system.mem_ctrls.bytes_inst_read::total         17664                       # Number of instructions bytes read from this memory
system.mem_ctrls.num_reads::.cpu.inst             276                       # Number of read requests responded to by this memory
system.mem_ctrls.num_reads::.cpu.data             150                       # Number of read requests responded to by this memory
system.mem_ctrls.num_reads::total                 426                       # Number of read requests responded to by this memory
system.mem_ctrls.bw_read::.cpu.inst          61837914                       # Total read bandwidth from this memory (bytes/s)
system.mem_ctrls.bw_read::.cpu.data          33607562                       # Total read bandwidth from this memory (bytes/s)
system.mem_ctrls.bw_read::total              95445475                       # Total read bandwidth from this memory (bytes/s)
system.mem_ctrls.bw_inst_read::.cpu.inst     61837914                       # Instruction read bandwidth from this memory (bytes/s)
system.mem_ctrls.bw_inst_read::total         61837914                       # Instruction read bandwidth from this memory (bytes/s)
system.mem_ctrls.bw_total::.cpu.inst         61837914                       # Total bandwidth to/from this memory (bytes/s)
system.mem_ctrls.bw_total::.cpu.data         33607562                       # Total bandwidth to/from this memory (bytes/s)
system.mem_ctrls.bw_total::total             95445475                       # Total bandwidth to/from this memory (bytes/s)
system.mem_ctrls.avgPriority_.writebacks::samples        43.00                       # Average QoS priority value for accepted requests
system.mem_ctrls.avgPriority_.cpu.inst::samples       263.00                       # Average QoS priority value for accepted requests
system.mem_ctrls.avgPriority_.cpu.data::samples       149.00                       # Average QoS priority value for accepted requests
system.mem_ctrls.priorityMinLatency      0.000000018750                       # per QoS priority minimum request to response latency (s)
system.mem_ctrls.priorityMaxLatency      0.000477881250                       # per QoS priority maximum request to response latency (s)
system.mem_ctrls.numReadWriteTurnArounds            1                       # Number of turnarounds from READ to WRITE
system.mem_ctrls.numWriteReadTurnArounds            1                       # Number of turnarounds from WRITE to READ
system.mem_ctrls.numStayReadState                 942                       # Number of times bus staying in READ state
system.mem_ctrls.numStayWriteState                 17                       # Number of times bus staying in WRITE state
system.mem_ctrls.readReqs                         426                       # Number of read requests accepted
system.mem_ctrls.writeReqs                         46                       # Number of write requests accepted
system.mem_ctrls.readBursts                       426                       # Number of DRAM read bursts, including those serviced by the write queue
system.mem_ctrls.writeBursts                       46                       # Number of DRAM write bursts, including those merged in the write queue
system.mem_ctrls.servicedByWrQ                     14                       # Number of DRAM read bursts serviced by the write queue
system.mem_ctrls.mergedWrBursts                     3                       # Number of DRAM write bursts merged with an existing one
system.mem_ctrls.neitherReadNorWriteReqs            0                       # Number of requests that are neither read nor write
system.mem_ctrls.perBankRdBursts::0                35                       # Per bank write bursts
system.mem_ctrls.perBankRdBursts::1                 1                       # Per bank write bursts
system.mem_ctrls.perBankRdBursts::2                26                       # Per bank write bursts
system.mem_ctrls.perBankRdBursts::3                21                       # Per bank write bursts
system.mem_ctrls.perBankRdBursts::4                43                       # Per bank write bursts
system.mem_ctrls.perBankRdBursts::5                30                       # Per bank write bursts
system.mem_ctrls.perBankRdBursts::6                47                       # Per bank write bursts
system.mem_ctrls.perBankRdBursts::7                19                       # Per bank write bursts
system.mem_ctrls.perBankRdBursts::8                24                       # Per bank write bursts
system.mem_ctrls.perBankRdBursts::9               102                       # Per bank write bursts
system.mem_ctrls.perBankRdBursts::10               17                       # Per bank write bursts
system.mem_ctrls.perBankRdBursts::11               20                       # Per bank write bursts
system.mem_ctrls.perBankRdBursts::12               10                       # Per bank write bursts
system.mem_ctrls.perBankRdBursts::13               11                       # Per bank write bursts
system.mem_ctrls.perBankRdBursts::14                6                       # Per bank write bursts
system.mem_ctrls.perBankRdBursts::15                0                       # Per bank write bursts
system.mem_ctrls.perBankWrBursts::0                 6                       # Per bank write bursts
system.mem_ctrls.perBankWrBursts::1                 0                       # Per bank write bursts
system.mem_ctrls.perBankWrBursts::2                 5                       # Per bank write bursts
system.mem_ctrls.perBankWrBursts::3                 2                       # Per bank write bursts
system.mem_ctrls.perBankWrBursts::4                 0                       # Per bank write bursts
system.mem_ctrls.perBankWrBursts::5                 1                       # Per bank write bursts
system.mem_ctrls.perBankWrBursts::6                 1                       # Per bank write bursts
system.mem_ctrls.perBankWrBursts::7                 3                       # Per bank write bursts
system.mem_ctrls.perBankWrBursts::8                 0                       # Per bank write bursts
system.mem_ctrls.perBankWrBursts::9                 0                       # Per bank write bursts
system.mem_ctrls.perBankWrBursts::10                0                       # Per bank write bursts
system.mem_ctrls.perBankWrBursts::11                0                       # Per bank write bursts
system.mem_ctrls.perBankWrBursts::12                0                       # Per bank write bursts
system.mem_ctrls.perBankWrBursts::13                0                       # Per bank write bursts
system.mem_ctrls.perBankWrBursts::14                0                       # Per bank write bursts
system.mem_ctrls.perBankWrBursts::15                0                       # Per bank write bursts
system.mem_ctrls.avgRdQLen                       1.00                       # Average read queue length when enqueuing
system.mem_ctrls.avgWrQLen                       9.46                       # Average write queue length when enqueuing
system.mem_ctrls.totQLat                      4015250                       # Total ticks spent queuing
system.mem_ctrls.totBusLat                    2060000                       # Total ticks spent in databus transfers
system.mem_ctrls.totMemAccLat                11740250                       # Total ticks spent from burst creation until serviced by the DRAM
system.mem_ctrls.avgQLat                      9745.75                       # Average queueing delay per DRAM burst
system.mem_ctrls.avgBusLat                    5000.00                       # Average bus latency per DRAM burst
system.mem_ctrls.avgMemAccLat                28495.75                       # Average memory access latency per DRAM burst
system.mem_ctrls.numRdRetry                         0                       # Number of times read queue was full causing retry
system.mem_ctrls.numWrRetry                         0                       # Number of times write queue was full causing retry
system.mem_ctrls.readRowHits                      259                       # Number of row buffer hits during reads
system.mem_ctrls.writeRowHits                      14                       # Number of row buffer hits during writes
system.mem_ctrls.readRowHitRate                 62.86                       # Row buffer hit rate for reads
system.mem_ctrls.writeRowHitRate                32.56                       # Row buffer hit rate for writes
system.mem_ctrls.readPktSize::0                     0                       # Read request sizes (log2)
system.mem_ctrls.readPktSize::1                     0                       # Read request sizes (log2)
system.mem_ctrls.readPktSize::2                     0                       # Read request sizes (log2)
system.mem_ctrls.readPktSize::3                     0                       # Read request sizes (log2)
system.mem_ctrls.readPktSize::4                     0                       # Read request sizes (log2)
system.mem_ctrls.readPktSize::5                     0                       # Read request sizes (log2)
system.mem_ctrls.readPktSize::6                   426                       # Read request sizes (log2)
system.mem_ctrls.writePktSize::0                    0                       # Write request sizes (log2)
system.mem_ctrls.writePktSize::1                    0                       # Write request sizes (log2)
system.mem_ctrls.writePktSize::2                    0                       # Write request sizes (log2)
system.mem_ctrls.writePktSize::3                    0                       # Write request sizes (log2)
system.mem_ctrls.writePktSize::4                    0                       # Write request sizes (log2)
system.mem_ctrls.writePktSize::5                    0                       # Write request sizes (log2)
system.mem_ctrls.writePktSize::6                   46                       # Write request sizes (log2)
system.mem_ctrls.rdQLenPdf::0                     411                       # What read queue length does an incoming req see
system.mem_ctrls.rdQLenPdf::1                       1                       # What read queue length does an incoming req see
system.mem_ctrls.rdQLenPdf::2                       0                       # What read queue length does an incoming req see
system.mem_ctrls.rdQLenPdf::3                       0                       # What read queue length does an incoming req see
system.mem_ctrls.rdQLenPdf::4                       0                       # What read queue length does an incoming req see
system.mem_ctrls.rdQLenPdf::5                       0                       # What read queue length does an incoming req see
system.mem_ctrls.rdQLenPdf::6                       0                       # What read queue length does an incoming req see
system.mem_ctrls.rdQLenPdf::7                       0                       # What read queue length does an incoming req see
system.mem_ctrls.rdQLenPdf::8                       0                       # What read queue length does an incoming req see
system.mem_ctrls.rdQLenPdf::9                       0                       # What read queue length does an incoming req see
system.mem_ctrls.rdQLenPdf::10                      0                       # What read queue length does an incoming req see
system.mem_ctrls.rdQLenPdf::11                      0                       # What read queue length does an incoming req see
system.mem_ctrls.rdQLenPdf::12                      0                       # What read queue length does an incoming req see
system.mem_ctrls.rdQLenPdf::13                      0                       # What read queue length does an incoming req see
system.mem_ctrls.rdQLenPdf::14                      0                       # What read queue length does an incoming req see
system.mem_ctrls.rdQLenPdf::15                      0                       # What read queue length does an incoming req see
system.mem_ctrls.rdQLenPdf::16                      0                       # What read queue length does an incoming req see
system.mem_ctrls.rdQLenPdf::17                      0                       # What read queue length does an incoming req see
system.mem_ctrls.rdQLenPdf::18                      0                       # What read queue length does an incoming req see
system.mem_ctrls.rdQLenPdf::19                      0                       # What read queue length does an incoming req see
system.mem_ctrls.rdQLenPdf::20                      0                       # What read queue length does an incoming req see
system.mem_ctrls.rdQLenPdf::21                      0                       # What read queue length does an incoming req see
system.mem_ctrls.rdQLenPdf::22                      0                       # What read queue length does an incoming req see
system.mem_ctrls.rdQLenPdf::23                      0                       # What read queue length does an incoming req see
system.mem_ctrls.rdQLenPdf::24                      0                       # What read queue length does an incoming req see
system.mem_ctrls.rdQLenPdf::25                      0                       # What read queue length does an incoming req see
system.mem_ctrls.rdQLenPdf::26                      0                       # What read queue length does an incoming req see
system.mem_ctrls.rdQLenPdf::27                      0                       # What read queue length does an incoming req see
system.mem_ctrls.rdQLenPdf::28                      0                       # What read queue length does an incoming req see
system.mem_ctrls.rdQLenPdf::29                      0                       # What read queue length does an incoming req see
system.mem_ctrls.rdQLenPdf::30                      0                       # What read queue length does an incoming req see
system.mem_ctrls.rdQLenPdf::31                      0                       # What read queue length does an incoming req see
system.mem_ctrls.wrQLenPdf::0                       1                       # What write queue length does an incoming req see
system.mem_ctrls.wrQLenPdf::1                       1                       # What write queue length does an incoming req see
system.mem_ctrls.wrQLenPdf::2                       1                       # What write queue length does an incoming req see
system.mem_ctrls.wrQLenPdf::3                       1                       # What write queue length does an incoming req see
system.mem_ctrls.wrQLenPdf::4                       1                       # What write queue length does an incoming req see
system.mem_ctrls.wrQLenPdf::5                       1                       # What write queue length does an incoming req see
system.mem_ctrls.wrQLenPdf::6                       1                       # What write queue length does an incoming req see
system.mem_ctrls.wrQLenPdf::7                       1                       # What write queue length does an incoming req see
system.mem_ctrls.wrQLenPdf::8                       1                       # What write queue length does an incoming req see
system.mem_ctrls.wrQLenPdf::9                       1                       # What write queue length does an incoming req see
system.mem_ctrls.wrQLenPdf::10                      1                       # What write queue length does an incoming req see
system.mem_ctrls.wrQLenPdf::11                      1                       # What write queue length does an incoming req see
system.mem_ctrls.wrQLenPdf::12                      1                       # What write queue length does an incoming req see
system.mem_ctrls.wrQLenPdf::13                      1                       # What write queue length does an incoming req see
system.mem_ctrls.wrQLenPdf::14                      1                       # What write queue length does an incoming req see
system.mem_ctrls.wrQLenPdf::15                      2                       # What write queue length does an incoming req see
system.mem_ctrls.wrQLenPdf::16                      2                       # What write queue length does an incoming req see
system.mem_ctrls.wrQLenPdf::17                      2                       # What write queue length does an incoming req see
system.mem_ctrls.wrQLenPdf::18                      2                       # What write queue length does an incoming req see
system.mem_ctrls.wrQLenPdf::19                      2                       # What write queue length does an incoming req see
system.mem_ctrls.wrQLenPdf::20                      2                       # What write queue length does an incoming req see
system.mem_ctrls.wrQLenPdf::21                      2                       # What write queue length does an incoming req see
system.mem_ctrls.wrQLenPdf::22                      2                       # What write queue length does an incoming req see
system.mem_ctrls.wrQLenPdf::23                      2                       # What write queue length does an incoming req see
system.mem_ctrls.wrQLenPdf::24                      2                       # What write queue length does an incoming req see
system.mem_ctrls.wrQLenPdf::25                      1                       # What write queue length does an incoming req see
system.mem_ctrls.wrQLenPdf::26                      1                       # What write queue length does an incoming req see
system.mem_ctrls.wrQLenPdf::27                      1                       # What write queue length does an incoming req see
system.mem_ctrls.wrQLenPdf::28                      1                       # What write queue length does an incoming req see
system.mem_ctrls.wrQLenPdf::29                      1                       # What write queue length does an incoming req see
system.mem_ctrls.wrQLenPdf::30                      1                       # What write queue length does an incoming req see
system.mem_ctrls.wrQLenPdf::31                      1                       # What write queue length does an incoming req see
system.mem_ctrls.wrQLenPdf::32                      1                       # What write queue length does an incoming req see
system.mem_ctrls.wrQLenPdf::33                      0                       # What write queue length does an incoming req see
system.mem_ctrls.wrQLenPdf::34                      0                       # What write queue length does an incoming req see
system.mem_ctrls.wrQLenPdf::35                      0                       # What write queue length does an incoming req see
system.mem_ctrls.wrQLenPdf::36                      0                       # What write queue length does an incoming req see
system.mem_ctrls.wrQLenPdf::37                      0                       # What write queue length does an incoming req see
system.mem_ctrls.wrQLenPdf::38                      0                       # What write queue length does an incoming req see
system.mem_ctrls.wrQLenPdf::39                      0                       # What write queue length does an incoming req see
system.mem_ctrls.wrQLenPdf::40                      0                       # What write queue length does an incoming req see
system.mem_ctrls.wrQLenPdf::41                      0                       # What write queue length does an incoming req see
system.mem_ctrls.wrQLenPdf::42                      0                       # What write queue length does an incoming req see
system.mem_ctrls.wrQLenPdf::43                      0                       # What write queue length does an incoming req see
system.mem_ctrls.wrQLenPdf::44                      0                       # What write queue length does an incoming req see
system.mem_ctrls.wrQLenPdf::45                      0                       # What write queue length does an incoming req see
system.mem_ctrls.wrQLenPdf::46                      0                       # What write queue length does an incoming req see
system.mem_ctrls.wrQLenPdf::47                      0                       # What write queue length does an incoming req see
system.mem_ctrls.wrQLenPdf::48                      0                       # What write queue length does an incoming req see
system.mem_ctrls.wrQLenPdf::49                      0                       # What write queue length does an incoming req see
system.mem_ctrls.wrQLenPdf::50                      0                       # What write queue length does an incoming req see
system.mem_ctrls.wrQLenPdf::51                      0                       # What write queue length does an incoming req see
system.mem_ctrls.wrQLenPdf::52                      0                       # What write queue length does an incoming req see
system.mem_ctrls.wrQLenPdf::53                      0                       # What write queue length does an incoming req see
system.mem_ctrls.wrQLenPdf::54                      0                       # What write queue length does an incoming req see
system.mem_ctrls.wrQLenPdf::55                      0                       # What write queue length does an incoming req see
system.mem_ctrls.wrQLenPdf::56                      0                       # What write queue length does an incoming req see
system.mem_ctrls.wrQLenPdf::57                      0                       # What write queue length does an incoming req see
system.mem_ctrls.wrQLenPdf::58                      0                       # What write queue length does an incoming req see
system.mem_ctrls.wrQLenPdf::59                      0                       # What write queue length does an incoming req see
system.mem_ctrls.wrQLenPdf::60                      0                       # What write queue length does an incoming req see
system.mem_ctrls.wrQLenPdf::61                      0                       # What write queue length does an incoming req see
system.mem_ctrls.wrQLenPdf::62                      0                       # What write queue length does an incoming req see
system.mem_ctrls.wrQLenPdf::63                      0                       # What write queue length does an incoming req see
system.mem_ctrls.bytesPerActivate::samples          155                       # Bytes accessed per row activation
system.mem_ctrls.bytesPerActivate::mean    173.832258                       # Bytes accessed per row activation
system.mem_ctrls.bytesPerActivate::gmean   128.658665                       # Bytes accessed per row activation
system.mem_ctrls.bytesPerActivate::stdev   157.403106                       # Bytes accessed per row activation
system.mem_ctrls.bytesPerActivate::64-127           66     42.58%     42.58% # Bytes accessed per row activation
system.mem_ctrls.bytesPerActivate::128-191           36     23.23%     65.81% # Bytes accessed per row activation
system.mem_ctrls.bytesPerActivate::192-255           18     11.61%     77.42% # Bytes accessed per row activation
system.mem_ctrls.bytesPerActivate::256-319            9      5.81%     83.23% # Bytes accessed per row activation
system.mem_ctrls.bytesPerActivate::320-383            7      4.52%     87.74% # Bytes accessed per row activation
system.mem_ctrls.bytesPerActivate::384-447            4      2.58%     90.32% # Bytes accessed per row activation
system.mem_ctrls.bytesPerActivate::448-511            3      1.94%     92.26% # Bytes accessed per row activation
system.mem_ctrls.bytesPerActivate::512-575            5      3.23%     95.48% # Bytes accessed per row activation
system.mem_ctrls.bytesPerActivate::576-639            2      1.29%     96.77% # Bytes accessed per row activation
system.mem_ctrls.bytesPerActivate::640-703            2      1.29%     98.06% # Bytes accessed per row activation
system.mem_ctrls.bytesPerActivate::704-767            2      1.29%     99.35% # Bytes accessed per row activation
system.mem_ctrls.bytesPerActivate::832-895            1      0.65%    100.00% # Bytes accessed per row activation
system.mem_ctrls.bytesPerActivate::total          155                       # Bytes accessed per row activation
system.mem_ctrls.rdPerTurnAround::samples            1                       # Reads before turning the bus around for writes
system.mem_ctrls.rdPerTurnAround::mean            383                       # Reads before turning the bus around for writes
system.mem_ctrls.rdPerTurnAround::gmean    383.000000                       # Reads before turning the bus around for writes
system.mem_ctrls.rdPerTurnAround::stdev           nan                       # Reads before turning the bus around for writes
system.mem_ctrls.rdPerTurnAround::368-383            1    100.00%    100.00% # Reads before turning the bus around for writes
system.mem_ctrls.rdPerTurnAround::total             1                       # Reads before turning the bus around for writes
system.mem_ctrls.wrPerTurnAround::samples            1                       # Writes before turning the bus around for reads
system.mem_ctrls.wrPerTurnAround::mean             18                       # Writes before turning the bus around for reads
system.mem_ctrls.wrPerTurnAround::gmean     18.000000                       # Writes before turning the bus around for reads
system.mem_ctrls.wrPerTurnAround::stdev           nan                       # Writes before turning the bus around for reads
system.mem_ctrls.wrPerTurnAround::18                1    100.00%    100.00% # Writes before turning the bus around for reads
system.mem_ctrls.wrPerTurnAround::total             1                       # Writes before turning the bus around for reads
system.mem_ctrls.bytesReadDRAM                  26368                       # Total number of bytes read from DRAM
system.mem_ctrls.bytesReadWrQ                     896                       # Total number of bytes read from write queue
system.mem_ctrls.bytesWritten                    1152                       # Total number of bytes written to DRAM
system.mem_ctrls.bytesReadSys                   27264                       # Total read bytes from the system interface side
system.mem_ctrls.bytesWrittenSys                 2944                       # Total written bytes from the system interface side
system.mem_ctrls.avgRdBW                        92.31                       # Average DRAM read bandwidth in MiByte/s
system.mem_ctrls.avgWrBW                         4.03                       # Average achieved write bandwidth in MiByte/s
system.mem_ctrls.avgRdBWSys                     95.45                       # Average system read bandwidth in MiByte/s
system.mem_ctrls.avgWrBWSys                     10.31                       # Average system write bandwidth in MiByte/s
system.mem_ctrls.peakBW                      12800.00                       # Theoretical peak bandwidth in MiByte/s
system.mem_ctrls.busUtil                         0.75                       # Data bus utilization in percentage
system.mem_ctrls.busUtilRead                     0.72                       # Data bus utilization in percentage for reads
system.mem_ctrls.busUtilWrite                    0.03                       # Data bus utilization in percentage for writes
system.mem_ctrls.totGap                     285450000                       # Total gap between requests
system.mem_ctrls.avgGap                     604766.95                       # Average gap between requests
system.mem_ctrls.masterReadBytes::.cpu.inst        16832                       # Per-master bytes read from memory
system.mem_ctrls.masterReadBytes::.cpu.data         9536                       # Per-master bytes read from memory
system.mem_ctrls.masterWriteBytes::.writebacks         1152                       # Per-master bytes write to memory
system.mem_ctrls.masterReadRate::.cpu.inst 58925258.183091200888                       # Per-master bytes read from memory rate (Bytes/sec)
system.mem_ctrls.masterReadRate::.cpu.data 33383511.290040262043                       # Per-master bytes read from memory rate (Bytes/sec)
system.mem_ctrls.masterWriteRate::.writebacks 4032907.404165937565                       # Per-master bytes write to memory rate (Bytes/sec)
system.mem_ctrls.masterReadAccesses::.cpu.inst          276                       # Per-master read serviced memory accesses
system.mem_ctrls.masterReadAccesses::.cpu.data          150                       # Per-master read serviced memory accesses
system.mem_ctrls.masterWriteAccesses::.writebacks           46                       # Per-master write serviced memory accesses
system.mem_ctrls.masterReadTotalLat::.cpu.inst      7781250                       # Per-master read total memory access latency
system.mem_ctrls.masterReadTotalLat::.cpu.data      3959000                       # Per-master read total memory access latency
system.mem_ctrls.masterWriteTotalLat::.writebacks   1459132500                       # Per-master write total memory access latency
system.mem_ctrls.masterReadAvgLat::.cpu.inst     28192.93                       # Per-master read average memory access latency
system.mem_ctrls.masterReadAvgLat::.cpu.data     26393.33                       # Per-master read average memory access latency
system.mem_ctrls.masterWriteAvgLat::.writebacks  31720271.74                       # Per-master write average memory access latency
system.mem_ctrls.pageHitRate                    60.00                       # Row buffer hit rate, read and write combined
system.mem_ctrls.rank1.actEnergy               585480                       # Energy for activate commands per rank (pJ)
system.mem_ctrls.rank1.preEnergy               307395                       # Energy for precharge commands per rank (pJ)
system.mem_ctrls.rank1.readEnergy             1356600                       # Energy for read commands per rank (pJ)
system.mem_ctrls.rank1.writeEnergy                  0                       # Energy for write commands per rank (pJ)
system.mem_ctrls.rank1.refreshEnergy     22127040.000000                       # Energy for refresh commands per rank (pJ)
system.mem_ctrls.rank1.actBackEnergy         82376400                       # Energy for active background per rank (pJ)
system.mem_ctrls.rank1.preBackEnergy         40320000                       # Energy for precharge background per rank (pJ)
system.mem_ctrls.rank1.actPowerDownEnergy            0                       # Energy for active power-down per rank (pJ)
system.mem_ctrls.rank1.prePowerDownEnergy            0                       # Energy for precharge power-down per rank (pJ)
system.mem_ctrls.rank1.selfRefreshEnergy            0                       # Energy for self refresh per rank (pJ)
system.mem_ctrls.rank1.totalEnergy          147072915                       # Total energy per rank (pJ)
system.mem_ctrls.rank1.averagePower        514.871048                       # Core power per rank (mW)
system.mem_ctrls.rank1.totalIdleTime                0                       # Total Idle time Per DRAM Rank
system.mem_ctrls.rank1.memoryStateTime::IDLE    104010000                       # Time in different power states
system.mem_ctrls.rank1.memoryStateTime::REF      9360000                       # Time in different power states
system.mem_ctrls.rank1.memoryStateTime::SREF            0                       # Time in different power states
system.mem_ctrls.rank1.memoryStateTime::PRE_PDN            0                       # Time in different power states
system.mem_ctrls.rank1.memoryStateTime::ACT    172280000                       # Time in different power states
system.mem_ctrls.rank1.memoryStateTime::ACT_PDN            0                       # Time in different power states
system.mem_ctrls.rank0.actEnergy               535500                       # Energy for activate commands per rank (pJ)
system.mem_ctrls.rank0.preEnergy               280830                       # Energy for precharge commands per rank (pJ)
system.mem_ctrls.rank0.readEnergy             1585080                       # Energy for read commands per rank (pJ)
system.mem_ctrls.rank0.writeEnergy              93960                       # Energy for write commands per rank (pJ)
system.mem_ctrls.rank0.refreshEnergy     22127040.000000                       # Energy for refresh commands per rank (pJ)
system.mem_ctrls.rank0.actBackEnergy         85090740                       # Energy for active background per rank (pJ)
system.mem_ctrls.rank0.preBackEnergy         38034240                       # Energy for precharge background per rank (pJ)
system.mem_ctrls.rank0.actPowerDownEnergy            0                       # Energy for active power-down per rank (pJ)
system.mem_ctrls.rank0.prePowerDownEnergy            0                       # Energy for precharge power-down per rank (pJ)
system.mem_ctrls.rank0.selfRefreshEnergy            0                       # Energy for self refresh per rank (pJ)
system.mem_ctrls.rank0.totalEnergy          147747390                       # Total energy per rank (pJ)
system.mem_ctrls.rank0.averagePower        517.232242                       # Core power per rank (mW)
system.mem_ctrls.rank0.totalIdleTime                0                       # Total Idle time Per DRAM Rank
system.mem_ctrls.rank0.memoryStateTime::IDLE     98126250                       # Time in different power states
system.mem_ctrls.rank0.memoryStateTime::REF      9360000                       # Time in different power states
system.mem_ctrls.rank0.memoryStateTime::SREF            0                       # Time in different power states
system.mem_ctrls.rank0.memoryStateTime::PRE_PDN            0                       # Time in different power states
system.mem_ctrls.rank0.memoryStateTime::ACT    178163750                       # Time in different power states
system.mem_ctrls.rank0.memoryStateTime::ACT_PDN            0                       # Time in different power states
system.cpu_clk_domain.clock                     10000                       # Clock period in ticks
system.cpu.numPwrStateTransitions                   1                       # Number of power state transitions
system.cpu.pwrStateResidencyTicks::ON       285650000                       # Cumulative time (in ticks) in various power states
system.cpu.icache.pwrStateResidencyTicks::UNDEFINED    285650000                       # Cumulative time (in ticks) in various power states
system.cpu.icache.demand_hits::.cpu.inst         9496                       # number of demand (read+write) hits
system.cpu.icache.demand_hits::total             9496                       # number of demand (read+write) hits
system.cpu.icache.overall_hits::.cpu.inst         9496                       # number of overall hits
system.cpu.icache.overall_hits::total            9496                       # number of overall hits
system.cpu.icache.demand_misses::.cpu.inst          276                       # number of demand (read+write) misses
system.cpu.icache.demand_misses::total            276                       # number of demand (read+write) misses
system.cpu.icache.overall_misses::.cpu.inst          276                       # number of overall misses
system.cpu.icache.overall_misses::total           276                       # number of overall misses
system.cpu.icache.demand_miss_latency::.cpu.inst     28030000                       # number of demand (read+write) miss cycles
system.cpu.icache.demand_miss_latency::total     28030000                       # number of demand (read+write) miss cycles
system.cpu.icache.overall_miss_latency::.cpu.inst     28030000                       # number of overall miss cycles
system.cpu.icache.overall_miss_latency::total     28030000                       # number of overall miss cycles
system.cpu.icache.demand_accesses::.cpu.inst         9772                       # number of demand (read+write) accesses
system.cpu.icache.demand_accesses::total         9772                       # number of demand (read+write) accesses
system.cpu.icache.overall_accesses::.cpu.inst         9772                       # number of overall (read+write) accesses
system.cpu.icache.overall_accesses::total         9772                       # number of overall (read+write) accesses
system.cpu.icache.demand_miss_rate::.cpu.inst     0.028244                       # miss rate for demand accesses
system.cpu.icache.demand_miss_rate::total     0.028244                       # miss rate for demand accesses
system.cpu.icache.overall_miss_rate::.cpu.inst     0.028244                       # miss rate for overall accesses
system.cpu.icache.overall_miss_rate::total     0.028244                       # miss rate for overall accesses
system.cpu.icache.demand_avg_miss_latency::.cpu.inst 101557.971014                       # average overall miss latency
system.cpu.icache.demand_avg_miss_latency::total 101557.971014                       # average overall miss latency
system.cpu.icache.overall_avg_miss_latency::.cpu.inst 101557.971014                       # average overall miss latency
system.cpu.icache.overall_avg_miss_latency::total 101557.971014                       # average overall miss latency
system.cpu.icache.blocked_cycles::no_mshrs            0                       # number of cycles access was blocked
system.cpu.icache.blocked_cycles::no_targets            0                       # number of cycles access was blocked
system.cpu.icache.blocked::no_mshrs                 0                       # number of cycles access was blocked
system.cpu.icache.blocked::no_targets               0                       # number of cycles access was blocked
system.cpu.icache.avg_blocked_cycles::no_mshrs          nan                       # average number of cycles each access was blocked
system.cpu.icache.avg_blocked_cycles::no_targets          nan                       # average number of cycles each access was blocked
system.cpu.icache.writebacks::.writebacks           51                       # number of writebacks
system.cpu.icache.writebacks::total                51                       # number of writebacks
system.cpu.icache.demand_mshr_misses::.cpu.inst          276                       # number of demand (read+write) MSHR misses
system.cpu.icache.demand_mshr_misses::total          276                       # number of demand (read+write) MSHR misses
system.cpu.icache.overall_mshr_misses::.cpu.inst          276                       # number of overall MSHR misses
system.cpu.icache.overall_mshr_misses::total          276                       # number of overall MSHR misses
system.cpu.icache.demand_mshr_miss_latency::.cpu.inst     21761000                       # number of demand (read+write) MSHR miss cycles
system.cpu.icache.demand_mshr_miss_latency::total     21761000                       # number of demand (read+write) MSHR miss cycles
system.cpu.icache.overall_mshr_miss_latency::.cpu.inst     21761000                       # number of overall MSHR miss cycles
system.cpu.icache.overall_mshr_miss_latency::total     21761000                       # number of overall MSHR miss cycles
system.cpu.icache.demand_mshr_miss_rate::.cpu.inst     0.028244                       # mshr miss rate for demand accesses
system.cpu.icache.demand_mshr_miss_rate::total     0.028244                       # mshr miss rate for demand accesses
system.cpu.icache.overall_mshr_miss_rate::.cpu.inst     0.028244                       # mshr miss rate for overall accesses
system.cpu.icache.overall_mshr_miss_rate::total     0.028244                       # mshr miss rate for overall accesses
system.cpu.icache.demand_avg_mshr_miss_latency::.cpu.inst 78844.202899                       # average overall mshr miss latency
system.cpu.icache.demand_avg_mshr_miss_latency::total 78844.202899                       # average overall mshr miss latency
system.cpu.icache.overall_avg_mshr_miss_latency::.cpu.inst 78844.202899                       # average overall mshr miss latency
system.cpu.icache.overall_avg_mshr_miss_latency::total 78844.202899                       # average overall mshr miss latency
system.cpu.icache.replacements                     51                       # number of replacements
system.cpu.icache.ReadReq_hits::.cpu.inst         9496                       # number of ReadReq hits
system.cpu.icache.ReadReq_hits::total            9496                       # number of ReadReq hits
system.cpu.icache.ReadReq_misses::.cpu.inst          276                       # number of ReadReq misses
system.cpu.icache.ReadReq_misses::total           276                       # number of ReadReq misses
system.cpu.icache.ReadReq_miss_latency::.cpu.inst     28030000                       # number of ReadReq miss cycles
system.cpu.icache.ReadReq_miss_latency::total     28030000                       # number of ReadReq miss cycles
system.cpu.icache.ReadReq_accesses::.cpu.inst         9772                       # number of ReadReq accesses(hits+misses)
system.cpu.icache.ReadReq_accesses::total         9772                       # number of ReadReq accesses(hits+misses)
system.cpu.icache.ReadReq_miss_rate::.cpu.inst     0.028244                       # miss rate for ReadReq accesses
system.cpu.icache.ReadReq_miss_rate::total     0.028244                       # miss rate for ReadReq accesses
system.cpu.icache.ReadReq_avg_miss_latency::.cpu.inst 101557.971014                       # average ReadReq miss latency
system.cpu.icache.ReadReq_avg_miss_latency::total 101557.971014                       # average ReadReq miss latency
system.cpu.icache.ReadReq_mshr_misses::.cpu.inst          276                       # number of ReadReq MSHR misses
system.cpu.icache.ReadReq_mshr_misses::total          276                       # number of ReadReq MSHR misses
system.cpu.icache.ReadReq_mshr_miss_latency::.cpu.inst     21761000                       # number of ReadReq MSHR miss cycles
system.cpu.icache.ReadReq_mshr_miss_latency::total     21761000                       # number of ReadReq MSHR miss cycles
system.cpu.icache.ReadReq_mshr_miss_rate::.cpu.inst     0.028244                       # mshr miss rate for ReadReq accesses
system.cpu.icache.ReadReq_mshr_miss_rate::total     0.028244                       # mshr miss rate for ReadReq accesses
system.cpu.icache.ReadReq_avg_mshr_miss_latency::.cpu.inst 78844.202899                       # average ReadReq mshr miss latency
system.cpu.icache.ReadReq_avg_mshr_miss_latency::total 78844.202899                       # average ReadReq mshr miss latency
system.cpu.icache.tags.pwrStateResidencyTicks::UNDEFINED    285650000                       # Cumulative time (in ticks) in various power states
system.cpu.icache.tags.tagsinuse           126.376503                       # Cycle average of tags in use
system.cpu.icache.tags.total_refs                9772                       # Total number of references to valid blocks.
system.cpu.icache.tags.sampled_refs               276                       # Sample count of references to valid blocks.
system.cpu.icache.tags.avg_refs             35.405797                       # Average number of references to valid blocks.
system.cpu.icache.tags.warmup_cycle             83000                       # Cycle when the warmup percentage was hit.
system.cpu.icache.tags.occ_blocks::.cpu.inst   126.376503                       # Average occupied blocks per requestor
system.cpu.icache.tags.occ_percent::.cpu.inst     0.246829                       # Average percentage of cache occupancy
system.cpu.icache.tags.occ_percent::total     0.246829                       # Average percentage of cache occupancy
system.cpu.icache.tags.occ_task_id_blocks::1024          225                       # Occupied blocks per task id
system.cpu.icache.tags.age_task_id_blocks_1024::0           16                       # Occupied blocks per task id
system.cpu.icache.tags.age_task_id_blocks_1024::1           98                       # Occupied blocks per task id
system.cpu.icache.tags.age_task_id_blocks_1024::2          111                       # Occupied blocks per task id
system.cpu.icache.tags.occ_task_id_percent::1024     0.439453                       # Percentage of cache occupancy per task id
system.cpu.icache.tags.tag_accesses             19820                       # Number of tag accesses
system.cpu.icache.tags.data_accesses            19820                       # Number of data accesses
system.cpu.dtb.walker.pwrStateResidencyTicks::UNDEFINED    285650000                       # Cumulative time (in ticks) in various power states
system.cpu.dtb.stage2_mmu.stage2_tlb.walker.pwrStateResidencyTicks::UNDEFINED    285650000                       # Cumulative time (in ticks) in various power states
system.cpu.itb.walker.pwrStateResidencyTicks::UNDEFINED    285650000                       # Cumulative time (in ticks) in various power states
system.cpu.itb.stage2_mmu.stage2_tlb.walker.pwrStateResidencyTicks::UNDEFINED    285650000                       # Cumulative time (in ticks) in various power states
system.cpu.dcache.pwrStateResidencyTicks::UNDEFINED    285650000                       # Cumulative time (in ticks) in various power states
system.cpu.dcache.demand_hits::.cpu.data         2638                       # number of demand (read+write) hits
system.cpu.dcache.demand_hits::total             2638                       # number of demand (read+write) hits
system.cpu.dcache.overall_hits::.cpu.data         2662                       # number of overall hits
system.cpu.dcache.overall_hits::total            2662                       # number of overall hits
system.cpu.dcache.demand_misses::.cpu.data          141                       # number of demand (read+write) misses
system.cpu.dcache.demand_misses::total            141                       # number of demand (read+write) misses
system.cpu.dcache.overall_misses::.cpu.data          150                       # number of overall misses
system.cpu.dcache.overall_misses::total           150                       # number of overall misses
system.cpu.dcache.demand_miss_latency::.cpu.data     14180000                       # number of demand (read+write) miss cycles
system.cpu.dcache.demand_miss_latency::total     14180000                       # number of demand (read+write) miss cycles
system.cpu.dcache.overall_miss_latency::.cpu.data     14180000                       # number of overall miss cycles
system.cpu.dcache.overall_miss_latency::total     14180000                       # number of overall miss cycles
system.cpu.dcache.demand_accesses::.cpu.data         2779                       # number of demand (read+write) accesses
system.cpu.dcache.demand_accesses::total         2779                       # number of demand (read+write) accesses
system.cpu.dcache.overall_accesses::.cpu.data         2812                       # number of overall (read+write) accesses
system.cpu.dcache.overall_accesses::total         2812                       # number of overall (read+write) accesses
system.cpu.dcache.demand_miss_rate::.cpu.data     0.050738                       # miss rate for demand accesses
system.cpu.dcache.demand_miss_rate::total     0.050738                       # miss rate for demand accesses
system.cpu.dcache.overall_miss_rate::.cpu.data     0.053343                       # miss rate for overall accesses
system.cpu.dcache.overall_miss_rate::total     0.053343                       # miss rate for overall accesses
system.cpu.dcache.demand_avg_miss_latency::.cpu.data 100567.375887                       # average overall miss latency
system.cpu.dcache.demand_avg_miss_latency::total 100567.375887                       # average overall miss latency
system.cpu.dcache.overall_avg_miss_latency::.cpu.data 94533.333333                       # average overall miss latency
system.cpu.dcache.overall_avg_miss_latency::total 94533.333333                       # average overall miss latency
system.cpu.dcache.blocked_cycles::no_mshrs            0                       # number of cycles access was blocked
system.cpu.dcache.blocked_cycles::no_targets            0                       # number of cycles access was blocked
system.cpu.dcache.blocked::no_mshrs                 0                       # number of cycles access was blocked
system.cpu.dcache.blocked::no_targets               0                       # number of cycles access was blocked
system.cpu.dcache.avg_blocked_cycles::no_mshrs          nan                       # average number of cycles each access was blocked
system.cpu.dcache.avg_blocked_cycles::no_targets          nan                       # average number of cycles each access was blocked
system.cpu.dcache.demand_mshr_misses::.cpu.data          141                       # number of demand (read+write) MSHR misses
system.cpu.dcache.demand_mshr_misses::total          141                       # number of demand (read+write) MSHR misses
system.cpu.dcache.overall_mshr_misses::.cpu.data          150                       # number of overall MSHR misses
system.cpu.dcache.overall_mshr_misses::total          150                       # number of overall MSHR misses
system.cpu.dcache.demand_mshr_miss_latency::.cpu.data     10915000                       # number of demand (read+write) MSHR miss cycles
system.cpu.dcache.demand_mshr_miss_latency::total     10915000                       # number of demand (read+write) MSHR miss cycles
system.cpu.dcache.overall_mshr_miss_latency::.cpu.data     11606000                       # number of overall MSHR miss cycles
system.cpu.dcache.overall_mshr_miss_latency::total     11606000                       # number of overall MSHR miss cycles
system.cpu.dcache.demand_mshr_miss_rate::.cpu.data     0.050738                       # mshr miss rate for demand accesses
system.cpu.dcache.demand_mshr_miss_rate::total     0.050738                       # mshr miss rate for demand accesses
system.cpu.dcache.overall_mshr_miss_rate::.cpu.data     0.053343                       # mshr miss rate for overall accesses
system.cpu.dcache.overall_mshr_miss_rate::total     0.053343                       # mshr miss rate for overall accesses
system.cpu.dcache.demand_avg_mshr_miss_latency::.cpu.data 77411.347518                       # average overall mshr miss latency
system.cpu.dcache.demand_avg_mshr_miss_latency::total 77411.347518                       # average overall mshr miss latency
system.cpu.dcache.overall_avg_mshr_miss_latency::.cpu.data 77373.333333                       # average overall mshr miss latency
system.cpu.dcache.overall_avg_mshr_miss_latency::total 77373.333333                       # average overall mshr miss latency
system.cpu.dcache.replacements                      0                       # number of replacements
system.cpu.dcache.ReadReq_hits::.cpu.data         1217                       # number of ReadReq hits
system.cpu.dcache.ReadReq_hits::total            1217                       # number of ReadReq hits
system.cpu.dcache.ReadReq_misses::.cpu.data           80                       # number of ReadReq misses
system.cpu.dcache.ReadReq_misses::total            80                       # number of ReadReq misses
system.cpu.dcache.ReadReq_miss_latency::.cpu.data      8140000                       # number of ReadReq miss cycles
system.cpu.dcache.ReadReq_miss_latency::total      8140000                       # number of ReadReq miss cycles
system.cpu.dcache.ReadReq_accesses::.cpu.data         1297                       # number of ReadReq accesses(hits+misses)
system.cpu.dcache.ReadReq_accesses::total         1297                       # number of ReadReq accesses(hits+misses)
system.cpu.dcache.ReadReq_miss_rate::.cpu.data     0.061681                       # miss rate for ReadReq accesses
system.cpu.dcache.ReadReq_miss_rate::total     0.061681                       # miss rate for ReadReq accesses
system.cpu.dcache.ReadReq_avg_miss_latency::.cpu.data       101750                       # average ReadReq miss latency
system.cpu.dcache.ReadReq_avg_miss_latency::total       101750                       # average ReadReq miss latency
system.cpu.dcache.ReadReq_mshr_misses::.cpu.data           80                       # number of ReadReq MSHR misses
system.cpu.dcache.ReadReq_mshr_misses::total           80                       # number of ReadReq MSHR misses
system.cpu.dcache.ReadReq_mshr_miss_latency::.cpu.data      6300000                       # number of ReadReq MSHR miss cycles
system.cpu.dcache.ReadReq_mshr_miss_latency::total      6300000                       # number of ReadReq MSHR miss cycles
system.cpu.dcache.ReadReq_mshr_miss_rate::.cpu.data     0.061681                       # mshr miss rate for ReadReq accesses
system.cpu.dcache.ReadReq_mshr_miss_rate::total     0.061681                       # mshr miss rate for ReadReq accesses
system.cpu.dcache.ReadReq_avg_mshr_miss_latency::.cpu.data        78750                       # average ReadReq mshr miss latency
system.cpu.dcache.ReadReq_avg_mshr_miss_latency::total        78750                       # average ReadReq mshr miss latency
system.cpu.dcache.WriteReq_hits::.cpu.data         1421                       # number of WriteReq hits
system.cpu.dcache.WriteReq_hits::total           1421                       # number of WriteReq hits
system.cpu.dcache.WriteReq_misses::.cpu.data           61                       # number of WriteReq misses
system.cpu.dcache.WriteReq_misses::total           61                       # number of WriteReq misses
system.cpu.dcache.WriteReq_miss_latency::.cpu.data      6040000                       # number of WriteReq miss cycles
system.cpu.dcache.WriteReq_miss_latency::total      6040000                       # number of WriteReq miss cycles
system.cpu.dcache.WriteReq_accesses::.cpu.data         1482                       # number of WriteReq accesses(hits+misses)
system.cpu.dcache.WriteReq_accesses::total         1482                       # number of WriteReq accesses(hits+misses)
system.cpu.dcache.WriteReq_miss_rate::.cpu.data     0.041161                       # miss rate for WriteReq accesses
system.cpu.dcache.WriteReq_miss_rate::total     0.041161                       # miss rate for WriteReq accesses
system.cpu.dcache.WriteReq_avg_miss_latency::.cpu.data 99016.393443                       # average WriteReq miss latency
system.cpu.dcache.WriteReq_avg_miss_latency::total 99016.393443                       # average WriteReq miss latency
system.cpu.dcache.WriteReq_mshr_misses::.cpu.data           61                       # number of WriteReq MSHR misses
system.cpu.dcache.WriteReq_mshr_misses::total           61                       # number of WriteReq MSHR misses
system.cpu.dcache.WriteReq_mshr_miss_latency::.cpu.data      4615000                       # number of WriteReq MSHR miss cycles
system.cpu.dcache.WriteReq_mshr_miss_latency::total      4615000                       # number of WriteReq MSHR miss cycles
system.cpu.dcache.WriteReq_mshr_miss_rate::.cpu.data     0.041161                       # mshr miss rate for WriteReq accesses
system.cpu.dcache.WriteReq_mshr_miss_rate::total     0.041161                       # mshr miss rate for WriteReq accesses
system.cpu.dcache.WriteReq_avg_mshr_miss_latency::.cpu.data 75655.737705                       # average WriteReq mshr miss latency
system.cpu.dcache.WriteReq_avg_mshr_miss_latency::total 75655.737705                       # average WriteReq mshr miss latency
system.cpu.dcache.SoftPFReq_hits::.cpu.data           24                       # number of SoftPFReq hits
system.cpu.dcache.SoftPFReq_hits::total            24                       # number of SoftPFReq hits
system.cpu.dcache.SoftPFReq_misses::.cpu.data            9                       # number of SoftPFReq misses
system.cpu.dcache.SoftPFReq_misses::total            9                       # number of SoftPFReq misses
system.cpu.dcache.SoftPFReq_accesses::.cpu.data           33                       # number of SoftPFReq accesses(hits+misses)
system.cpu.dcache.SoftPFReq_accesses::total           33                       # number of SoftPFReq accesses(hits+misses)
system.cpu.dcache.SoftPFReq_miss_rate::.cpu.data     0.272727                       # miss rate for SoftPFReq accesses
system.cpu.dcache.SoftPFReq_miss_rate::total     0.272727                       # miss rate for SoftPFReq accesses
system.cpu.dcache.SoftPFReq_mshr_misses::.cpu.data            9                       # number of SoftPFReq MSHR misses
system.cpu.dcache.SoftPFReq_mshr_misses::total            9                       # number of SoftPFReq MSHR misses
system.cpu.dcache.SoftPFReq_mshr_miss_latency::.cpu.data       691000                       # number of SoftPFReq MSHR miss cycles
system.cpu.dcache.SoftPFReq_mshr_miss_latency::total       691000                       # number of SoftPFReq MSHR miss cycles
system.cpu.dcache.SoftPFReq_mshr_miss_rate::.cpu.data     0.272727                       # mshr miss rate for SoftPFReq accesses
system.cpu.dcache.SoftPFReq_mshr_miss_rate::total     0.272727                       # mshr miss rate for SoftPFReq accesses
system.cpu.dcache.SoftPFReq_avg_mshr_miss_latency::.cpu.data 76777.777778                       # average SoftPFReq mshr miss latency
system.cpu.dcache.SoftPFReq_avg_mshr_miss_latency::total 76777.777778                       # average SoftPFReq mshr miss latency
system.cpu.dcache.LoadLockedReq_hits::.cpu.data           18                       # number of LoadLockedReq hits
system.cpu.dcache.LoadLockedReq_hits::total           18                       # number of LoadLockedReq hits
system.cpu.dcache.LoadLockedReq_accesses::.cpu.data           18                       # number of LoadLockedReq accesses(hits+misses)
system.cpu.dcache.LoadLockedReq_accesses::total           18                       # number of LoadLockedReq accesses(hits+misses)
system.cpu.dcache.StoreCondReq_hits::.cpu.data           18                       # number of StoreCondReq hits
system.cpu.dcache.StoreCondReq_hits::total           18                       # number of StoreCondReq hits
system.cpu.dcache.StoreCondReq_accesses::.cpu.data           18                       # number of StoreCondReq accesses(hits+misses)
system.cpu.dcache.StoreCondReq_accesses::total           18                       # number of StoreCondReq accesses(hits+misses)
system.cpu.dcache.tags.pwrStateResidencyTicks::UNDEFINED    285650000                       # Cumulative time (in ticks) in various power states
system.cpu.dcache.tags.tagsinuse            93.701782                       # Cycle average of tags in use
system.cpu.dcache.tags.total_refs                2848                       # Total number of references to valid blocks.
system.cpu.dcache.tags.sampled_refs               150                       # Sample count of references to valid blocks.
system.cpu.dcache.tags.avg_refs             18.986667                       # Average number of references to valid blocks.
system.cpu.dcache.tags.warmup_cycle            233000                       # Cycle when the warmup percentage was hit.
system.cpu.dcache.tags.occ_blocks::.cpu.data    93.701782                       # Average occupied blocks per requestor
system.cpu.dcache.tags.occ_percent::.cpu.data     0.091506                       # Average percentage of cache occupancy
system.cpu.dcache.tags.occ_percent::total     0.091506                       # Average percentage of cache occupancy
system.cpu.dcache.tags.occ_task_id_blocks::1024          150                       # Occupied blocks per task id
system.cpu.dcache.tags.age_task_id_blocks_1024::0            4                       # Occupied blocks per task id
system.cpu.dcache.tags.age_task_id_blocks_1024::1           32                       # Occupied blocks per task id
system.cpu.dcache.tags.age_task_id_blocks_1024::2          114                       # Occupied blocks per task id
system.cpu.dcache.tags.occ_task_id_percent::1024     0.146484                       # Percentage of cache occupancy per task id
system.cpu.dcache.tags.tag_accesses              5846                       # Number of tag accesses
system.cpu.dcache.tags.data_accesses             5846                       # Number of data accesses

---------- End Simulation Statistics   ----------
