
---------- Begin Simulation Statistics ----------
final_tick                                  171920000                       # Number of ticks from beginning of simulation (restored from checkpoints and never reset)
host_inst_rate                                 161768                       # Simulator instruction rate (inst/s)
host_mem_usage                                 678752                       # Number of bytes of host memory used
host_op_rate                                   185493                       # Simulator op (including micro ops) rate (op/s)
host_seconds                                     0.05                       # Real time elapsed on the host
host_tick_rate                             3284194459                       # Simulator tick rate (ticks/s)
sim_freq                                 1000000000000                       # Frequency of simulated ticks
sim_insts                                        8442                       # Number of instructions simulated
sim_ops                                          9707                       # Number of ops (including micro ops) simulated
sim_seconds                                  0.000172                       # Number of seconds simulated
sim_ticks                                   171920000                       # Number of ticks simulated
system.cpu.branchPred.BTBCorrect                    0                       # Number of correct BTB predictions (this stat may not work properly.
system.cpu.branchPred.BTBHitPct             24.164629                       # BTB Hit Percentage
system.cpu.branchPred.BTBHits                     593                       # Number of BTB hits
system.cpu.branchPred.BTBLookups                 2454                       # Number of BTB lookups
system.cpu.branchPred.RASInCorrect                  3                       # Number of incorrect RAS predictions.
system.cpu.branchPred.condIncorrect               518                       # Number of conditional branches incorrect
system.cpu.branchPred.condPredicted              1956                       # Number of conditional branches predicted
system.cpu.branchPred.indirectHits                 28                       # Number of indirect target hits.
system.cpu.branchPred.indirectLookups             153                       # Number of indirect predictor lookups.
system.cpu.branchPred.indirectMisses              125                       # Number of indirect misses.
system.cpu.branchPred.lookups                    3020                       # Number of BP lookups
system.cpu.branchPred.usedRAS                     271                       # Number of times the RAS was used to get a target.
system.cpu.branchPredindirectMispredicted           60                       # Number of mispredicted indirect branches.
system.cpu.committedInsts                        8442                       # Number of instructions committed
system.cpu.committedOps                          9707                       # Number of ops (including micro ops) committed
system.cpu.cpi                               2.036484                       # CPI: cycles per instruction
system.cpu.discardedOps                          1717                       # Number of ops (including micro ops) which were discarded before commit
system.cpu.dtb.accesses                             0                       # DTB accesses
system.cpu.dtb.align_faults                         0                       # Number of TLB faults due to alignment restrictions
system.cpu.dtb.domain_faults                        0                       # Number of TLB faults due to domain restrictions
system.cpu.dtb.flush_entries                        0                       # Number of entries that have been flushed from TLB
system.cpu.dtb.flush_tlb                            0                       # Number of times complete TLB was flushed
system.cpu.dtb.flush_tlb_asid                       0                       # Number of times TLB was flushed by ASID
system.cpu.dtb.flush_tlb_mva                        0                       # Number of times TLB was flushed by MVA
system.cpu.dtb.flush_tlb_mva_asid                   0                       # Number of times TLB was flushed by MVA & ASID
system.cpu.dtb.hits                                 0                       # DTB hits
system.cpu.dtb.inst_accesses                        0                       # ITB inst accesses
system.cpu.dtb.inst_hits                            0                       # ITB inst hits
system.cpu.dtb.inst_misses                          0                       # ITB inst misses
system.cpu.dtb.misses                               0                       # DTB misses
system.cpu.dtb.perms_faults                         0                       # Number of TLB faults due to permissions restrictions
system.cpu.dtb.prefetch_faults                      0                       # Number of TLB faults due to prefetch
system.cpu.dtb.read_accesses                        0                       # DTB read accesses
system.cpu.dtb.read_hits                            0                       # DTB read hits
system.cpu.dtb.read_misses                          0                       # DTB read misses
system.cpu.dtb.stage2_mmu.stage2_tlb.accesses            0                       # DTB accesses
system.cpu.dtb.stage2_mmu.stage2_tlb.align_faults            0                       # Number of TLB faults due to alignment restrictions
system.cpu.dtb.stage2_mmu.stage2_tlb.domain_faults            0                       # Number of TLB faults due to domain restrictions
system.cpu.dtb.stage2_mmu.stage2_tlb.flush_entries            0                       # Number of entries that have been flushed from TLB
system.cpu.dtb.stage2_mmu.stage2_tlb.flush_tlb            0                       # Number of times complete TLB was flushed
system.cpu.dtb.stage2_mmu.stage2_tlb.flush_tlb_asid            0                       # Number of times TLB was flushed by ASID
system.cpu.dtb.stage2_mmu.stage2_tlb.flush_tlb_mva            0                       # Number of times TLB was flushed by MVA
system.cpu.dtb.stage2_mmu.stage2_tlb.flush_tlb_mva_asid            0                       # Number of times TLB was flushed by MVA & ASID
system.cpu.dtb.stage2_mmu.stage2_tlb.hits            0                       # DTB hits
system.cpu.dtb.stage2_mmu.stage2_tlb.inst_accesses            0                       # ITB inst accesses
system.cpu.dtb.stage2_mmu.stage2_tlb.inst_hits            0                       # ITB inst hits
system.cpu.dtb.stage2_mmu.stage2_tlb.inst_misses            0                       # ITB inst misses
system.cpu.dtb.stage2_mmu.stage2_tlb.misses            0                       # DTB misses
system.cpu.dtb.stage2_mmu.stage2_tlb.perms_faults            0                       # Number of TLB faults due to permissions restrictions
system.cpu.dtb.stage2_mmu.stage2_tlb.prefetch_faults            0                       # Number of TLB faults due to prefetch
system.cpu.dtb.stage2_mmu.stage2_tlb.read_accesses            0                       # DTB read accesses
system.cpu.dtb.stage2_mmu.stage2_tlb.read_hits            0                       # DTB read hits
system.cpu.dtb.stage2_mmu.stage2_tlb.read_misses            0                       # DTB read misses
system.cpu.dtb.stage2_mmu.stage2_tlb.walker.walkRequestOrigin_Requested::Data            0                       # Table walker requests started/completed, data/inst
system.cpu.dtb.stage2_mmu.stage2_tlb.walker.walkRequestOrigin_Requested::Inst            0                       # Table walker requests started/completed, data/inst
system.cpu.dtb.stage2_mmu.stage2_tlb.walker.walkRequestOrigin_Requested::total            0                       # Table walker requests started/completed, data/inst
system.cpu.dtb.stage2_mmu.stage2_tlb.walker.walkRequestOrigin_Completed::Data            0                       # Table walker requests started/completed, data/inst
system.cpu.dtb.stage2_mmu.stage2_tlb.walker.walkRequestOrigin_Completed::Inst            0                       # Table walker requests started/completed, data/inst
system.cpu.dtb.stage2_mmu.stage2_tlb.walker.walkRequestOrigin_Completed::total            0                       # Table walker requests started/completed, data/inst
system.cpu.dtb.stage2_mmu.stage2_tlb.walker.walkRequestOrigin::total            0                       # Table walker requests started/completed, data/inst
system.cpu.dtb.stage2_mmu.stage2_tlb.walker.walks            0                       # Table walker walks requested
system.cpu.dtb.stage2_mmu.stage2_tlb.write_accesses            0                       # DTB write accesses
system.cpu.dtb.stage2_mmu.stage2_tlb.write_hits            0                       # DTB write hits
system.cpu.dtb.stage2_mmu.stage2_tlb.write_misses            0                       # DTB write misses
system.cpu.dtb.walker.walkRequestOrigin_Requested::Data            0                       # Table walker requests started/completed, data/inst
system.cpu.dtb.walker.walkRequestOrigin_Requested::Inst            0                       # Table walker requests started/completed, data/inst
system.cpu.dtb.walker.walkRequestOrigin_Requested::total            0                       # Table walker requests started/completed, data/inst
system.cpu.dtb.walker.walkRequestOrigin_Completed::Data            0                       # Table walker requests started/completed, data/inst
system.cpu.dtb.walker.walkRequestOrigin_Completed::Inst            0                       # Table walker requests started/completed, data/inst
system.cpu.dtb.walker.walkRequestOrigin_Completed::total            0                       # Table walker requests started/completed, data/inst
system.cpu.dtb.walker.walkRequestOrigin::total            0                       # Table walker requests started/completed, data/inst
system.cpu.dtb.walker.walks                         0                       # Table walker walks requested
system.cpu.dtb.write_accesses                       0                       # DTB write accesses
system.cpu.dtb.write_hits                           0                       # DTB write hits
system.cpu.dtb.write_misses                         0                       # DTB write misses
system.cpu.fetch2.amo_instructions                  0                       # Number of memory atomic instructions successfully decoded
system.cpu.fetch2.fp_instructions                   0                       # Number of floating point instructions successfully decoded
system.cpu.fetch2.int_instructions               8954                       # Number of integer instructions successfully decoded
system.cpu.fetch2.load_instructions              2017                       # Number of memory load instructions successfully decoded
system.cpu.fetch2.store_instructions             1277                       # Number of memory store instructions successfully decoded
system.cpu.fetch2.vec_instructions                  0                       # Number of SIMD instructions successfully decoded
system.cpu.idleCycles                            1852                       # Total number of cycles that the object has spent stopped
system.cpu.ipc                               0.491042                       # IPC: instructions per cycle
system.cpu.itb.accesses                             0                       # DTB accesses
system.cpu.itb.align_faults                         0                       # Number of TLB faults due to alignment restrictions
system.cpu.itb.domain_faults                        0                       # Number of TLB faults due to domain restrictions
system.cpu.itb.flush_entries                        0                       # Number of entries that have been flushed from TLB
system.cpu.itb.flush_tlb                            0                       # Number of times complete TLB was flushed
system.cpu.itb.flush_tlb_asid                       0                       # Number of times TLB was flushed by ASID
system.cpu.itb.flush_tlb_mva                        0                       # Number of times TLB was flushed by MVA
system.cpu.itb.flush_tlb_mva_asid                   0                       # Number of times TLB was flushed by MVA & ASID
system.cpu.itb.hits                                 0                       # DTB hits
system.cpu.itb.inst_accesses                        0                       # ITB inst accesses
system.cpu.itb.inst_hits                            0                       # ITB inst hits
system.cpu.itb.inst_misses                          0                       # ITB inst misses
system.cpu.itb.misses                               0                       # DTB misses
system.cpu.itb.perms_faults                         0                       # Number of TLB faults due to permissions restrictions
system.cpu.itb.prefetch_faults                      0                       # Number of TLB faults due to prefetch
system.cpu.itb.read_accesses                        0                       # DTB read accesses
system.cpu.itb.read_hits                            0                       # DTB read hits
system.cpu.itb.read_misses                          0                       # DTB read misses
system.cpu.itb.stage2_mmu.stage2_tlb.accesses            0                       # DTB accesses
system.cpu.itb.stage2_mmu.stage2_tlb.align_faults            0                       # Number of TLB faults due to alignment restrictions
system.cpu.itb.stage2_mmu.stage2_tlb.domain_faults            0                       # Number of TLB faults due to domain restrictions
system.cpu.itb.stage2_mmu.stage2_tlb.flush_entries            0                       # Number of entries that have been flushed from TLB
system.cpu.itb.stage2_mmu.stage2_tlb.flush_tlb            0                       # Number of times complete TLB was flushed
system.cpu.itb.stage2_mmu.stage2_tlb.flush_tlb_asid            0                       # Number of times TLB was flushed by ASID
system.cpu.itb.stage2_mmu.stage2_tlb.flush_tlb_mva            0                       # Number of times TLB was flushed by MVA
system.cpu.itb.stage2_mmu.stage2_tlb.flush_tlb_mva_asid            0                       # Number of times TLB was flushed by MVA & ASID
system.cpu.itb.stage2_mmu.stage2_tlb.hits            0                       # DTB hits
system.cpu.itb.stage2_mmu.stage2_tlb.inst_accesses            0                       # ITB inst accesses
system.cpu.itb.stage2_mmu.stage2_tlb.inst_hits            0                       # ITB inst hits
system.cpu.itb.stage2_mmu.stage2_tlb.inst_misses            0                       # ITB inst misses
system.cpu.itb.stage2_mmu.stage2_tlb.misses            0                       # DTB misses
system.cpu.itb.stage2_mmu.stage2_tlb.perms_faults            0                       # Number of TLB faults due to permissions restrictions
system.cpu.itb.stage2_mmu.stage2_tlb.prefetch_faults            0                       # Number of TLB faults due to prefetch
system.cpu.itb.stage2_mmu.stage2_tlb.read_accesses            0                       # DTB read accesses
system.cpu.itb.stage2_mmu.stage2_tlb.read_hits            0                       # DTB read hits
system.cpu.itb.stage2_mmu.stage2_tlb.read_misses            0                       # DTB read misses
system.cpu.itb.stage2_mmu.stage2_tlb.walker.walkRequestOrigin_Requested::Data            0                       # Table walker requests started/completed, data/inst
system.cpu.itb.stage2_mmu.stage2_tlb.walker.walkRequestOrigin_Requested::Inst            0                       # Table walker requests started/completed, data/inst
system.cpu.itb.stage2_mmu.stage2_tlb.walker.walkRequestOrigin_Requested::total            0                       # Table walker requests started/completed, data/inst
system.cpu.itb.stage2_mmu.stage2_tlb.walker.walkRequestOrigin_Completed::Data            0                       # Table walker requests started/completed, data/inst
system.cpu.itb.stage2_mmu.stage2_tlb.walker.walkRequestOrigin_Completed::Inst            0                       # Table walker requests started/completed, data/inst
system.cpu.itb.stage2_mmu.stage2_tlb.walker.walkRequestOrigin_Completed::total            0                       # Table walker requests started/completed, data/inst
system.cpu.itb.stage2_mmu.stage2_tlb.walker.walkRequestOrigin::total            0                       # Table walker requests started/completed, data/inst
system.cpu.itb.stage2_mmu.stage2_tlb.walker.walks            0                       # Table walker walks requested
system.cpu.itb.stage2_mmu.stage2_tlb.write_accesses            0                       # DTB write accesses
system.cpu.itb.stage2_mmu.stage2_tlb.write_hits            0                       # DTB write hits
system.cpu.itb.stage2_mmu.stage2_tlb.write_misses            0                       # DTB write misses
system.cpu.itb.walker.walkRequestOrigin_Requested::Data            0                       # Table walker requests started/completed, data/inst
system.cpu.itb.walker.walkRequestOrigin_Requested::Inst            0                       # Table walker requests started/completed, data/inst
system.cpu.itb.walker.walkRequestOrigin_Requested::total            0                       # Table walker requests started/completed, data/inst
system.cpu.itb.walker.walkRequestOrigin_Completed::Data            0                       # Table walker requests started/completed, data/inst
system.cpu.itb.walker.walkRequestOrigin_Completed::Inst            0                       # Table walker requests started/completed, data/inst
system.cpu.itb.walker.walkRequestOrigin_Completed::total            0                       # Table walker requests started/completed, data/inst
system.cpu.itb.walker.walkRequestOrigin::total            0                       # Table walker requests started/completed, data/inst
system.cpu.itb.walker.walks                         0                       # Table walker walks requested
system.cpu.itb.write_accesses                       0                       # DTB write accesses
system.cpu.itb.write_hits                           0                       # DTB write hits
system.cpu.itb.write_misses                         0                       # DTB write misses
system.cpu.numCycles                            17192                       # number of cpu cycles simulated
system.cpu.numFetchSuspends                         0                       # Number of times Execute suspended instruction fetching
system.cpu.numWorkItemsCompleted                    0                       # number of work items this cpu completed
system.cpu.numWorkItemsStarted                      0                       # number of work items this cpu started
system.cpu.op_class_0::No_OpClass                   0      0.00%      0.00% # Class of committed instruction
system.cpu.op_class_0::IntAlu                    6742     69.46%     69.46% # Class of committed instruction
system.cpu.op_class_0::IntMult                     45      0.46%     69.92% # Class of committed instruction
system.cpu.op_class_0::IntDiv                       0      0.00%     69.92% # Class of committed instruction
system.cpu.op_class_0::FloatAdd                     0      0.00%     69.92% # Class of committed instruction
system.cpu.op_class_0::FloatCmp                     0      0.00%     69.92% # Class of committed instruction
system.cpu.op_class_0::FloatCvt                     0      0.00%     69.92% # Class of committed instruction
system.cpu.op_class_0::FloatMult                    0      0.00%     69.92% # Class of committed instruction
system.cpu.op_class_0::FloatMultAcc                 0      0.00%     69.92% # Class of committed instruction
system.cpu.op_class_0::FloatDiv                     0      0.00%     69.92% # Class of committed instruction
system.cpu.op_class_0::FloatMisc                    0      0.00%     69.92% # Class of committed instruction
system.cpu.op_class_0::FloatSqrt                    0      0.00%     69.92% # Class of committed instruction
system.cpu.op_class_0::SimdAdd                      0      0.00%     69.92% # Class of committed instruction
system.cpu.op_class_0::SimdAddAcc                   0      0.00%     69.92% # Class of committed instruction
system.cpu.op_class_0::SimdAlu                      0      0.00%     69.92% # Class of committed instruction
system.cpu.op_class_0::SimdCmp                      0      0.00%     69.92% # Class of committed instruction
system.cpu.op_class_0::SimdCvt                      0      0.00%     69.92% # Class of committed instruction
system.cpu.op_class_0::SimdMisc                     0      0.00%     69.92% # Class of committed instruction
system.cpu.op_class_0::SimdMult                     0      0.00%     69.92% # Class of committed instruction
system.cpu.op_class_0::SimdMultAcc                  0      0.00%     69.92% # Class of committed instruction
system.cpu.op_class_0::SimdShift                    0      0.00%     69.92% # Class of committed instruction
system.cpu.op_class_0::SimdShiftAcc                 0      0.00%     69.92% # Class of committed instruction
system.cpu.op_class_0::SimdDiv                      0      0.00%     69.92% # Class of committed instruction
system.cpu.op_class_0::SimdSqrt                     0      0.00%     69.92% # Class of committed instruction
system.cpu.op_class_0::SimdFloatAdd                 0      0.00%     69.92% # Class of committed instruction
system.cpu.op_class_0::SimdFloatAlu                 0      0.00%     69.92% # Class of committed instruction
system.cpu.op_class_0::SimdFloatCmp                 0      0.00%     69.92% # Class of committed instruction
system.cpu.op_class_0::SimdFloatCvt                 0      0.00%     69.92% # Class of committed instruction
system.cpu.op_class_0::SimdFloatDiv                 0      0.00%     69.92% # Class of committed instruction
system.cpu.op_class_0::SimdFloatMisc               21      0.22%     70.13% # Class of committed instruction
system.cpu.op_class_0::SimdFloatMult                0      0.00%     70.13% # Class of committed instruction
system.cpu.op_class_0::SimdFloatMultAcc             0      0.00%     70.13% # Class of committed instruction
system.cpu.op_class_0::SimdFloatSqrt                0      0.00%     70.13% # Class of committed instruction
system.cpu.op_class_0::SimdReduceAdd                0      0.00%     70.13% # Class of committed instruction
system.cpu.op_class_0::SimdReduceAlu                0      0.00%     70.13% # Class of committed instruction
system.cpu.op_class_0::SimdReduceCmp                0      0.00%     70.13% # Class of committed instruction
system.cpu.op_class_0::SimdFloatReduceAdd            0      0.00%     70.13% # Class of committed instruction
system.cpu.op_class_0::SimdFloatReduceCmp            0      0.00%     70.13% # Class of committed instruction
system.cpu.op_class_0::SimdAes                      0      0.00%     70.13% # Class of committed instruction
system.cpu.op_class_0::SimdAesMix                   0      0.00%     70.13% # Class of committed instruction
system.cpu.op_class_0::SimdSha1Hash                 0      0.00%     70.13% # Class of committed instruction
system.cpu.op_class_0::SimdSha1Hash2                0      0.00%     70.13% # Class of committed instruction
system.cpu.op_class_0::SimdSha256Hash               0      0.00%     70.13% # Class of committed instruction
system.cpu.op_class_0::SimdSha256Hash2              0      0.00%     70.13% # Class of committed instruction
system.cpu.op_class_0::SimdShaSigma2                0      0.00%     70.13% # Class of committed instruction
system.cpu.op_class_0::SimdShaSigma3                0      0.00%     70.13% # Class of committed instruction
system.cpu.op_class_0::SimdPredAlu                  0      0.00%     70.13% # Class of committed instruction
system.cpu.op_class_0::MemRead                   1370     14.11%     84.25% # Class of committed instruction
system.cpu.op_class_0::MemWrite                  1529     15.75%    100.00% # Class of committed instruction
system.cpu.op_class_0::FloatMemRead                 0      0.00%    100.00% # Class of committed instruction
system.cpu.op_class_0::FloatMemWrite                0      0.00%    100.00% # Class of committed instruction
system.cpu.op_class_0::IprAccess                    0      0.00%    100.00% # Class of committed instruction
system.cpu.op_class_0::InstPrefetch                 0      0.00%    100.00% # Class of committed instruction
system.cpu.op_class_0::total                     9707                       # Class of committed instruction
system.cpu.tickCycles                           15340                       # Number of cycles that the object actually ticked
system.cpu.workload.numSyscalls                    10                       # Number of system calls
system.membus.snoop_filter.hit_multi_requests            8                       # Number of requests hitting in the snoop filter with multiple (>1) holders of the requested data.
system.membus.snoop_filter.hit_multi_snoops            0                       # Number of snoops hitting in the snoop filter with multiple (>1) holders of the requested data.
system.membus.snoop_filter.hit_single_requests          138                       # Number of requests hitting in the snoop filter with a single holder of the requested data.
system.membus.snoop_filter.hit_single_snoops            0                       # Number of snoops hitting in the snoop filter with a single holder of the requested data.
system.membus.snoop_filter.tot_requests           677                       # Total number of requests made to the snoop filter.
system.membus.snoop_filter.tot_snoops               0                       # Total number of snoops made to the snoop filter.
system.membus.pwrStateResidencyTicks::UNDEFINED    171920000                       # Cumulative time (in ticks) in various power states
system.membus.trans_dist::ReadResp                498                       # Transaction distribution
system.membus.trans_dist::WritebackClean          118                       # Transaction distribution
system.membus.trans_dist::ReadExReq                61                       # Transaction distribution
system.membus.trans_dist::ReadExResp               61                       # Transaction distribution
system.membus.trans_dist::ReadCleanReq            399                       # Transaction distribution
system.membus.trans_dist::ReadSharedReq            99                       # Transaction distribution
system.membus.pkt_count_system.cpu.icache.mem_side::system.mem_ctrls.port          916                       # Packet count per connected master and slave (bytes)
system.membus.pkt_count_system.cpu.dcache.mem_side::system.mem_ctrls.port          320                       # Packet count per connected master and slave (bytes)
system.membus.pkt_count::total                   1236                       # Packet count per connected master and slave (bytes)
system.membus.pkt_size_system.cpu.icache.mem_side::system.mem_ctrls.port        33088                       # Cumulative packet size per connected master and slave (bytes)
system.membus.pkt_size_system.cpu.dcache.mem_side::system.mem_ctrls.port        10240                       # Cumulative packet size per connected master and slave (bytes)
system.membus.pkt_size::total                   43328                       # Cumulative packet size per connected master and slave (bytes)
system.membus.snoops                                0                       # Total snoops (count)
system.membus.snoopTraffic                          0                       # Total snoop traffic (bytes)
system.membus.snoop_fanout::samples               559                       # Request fanout histogram
system.membus.snoop_fanout::mean             0.050089                       # Request fanout histogram
system.membus.snoop_fanout::stdev            0.218325                       # Request fanout histogram
system.membus.snoop_fanout::underflows              0      0.00%      0.00% # Request fanout histogram
system.membus.snoop_fanout::0                     531     94.99%     94.99% # Request fanout histogram
system.membus.snoop_fanout::1                      28      5.01%    100.00% # Request fanout histogram
system.membus.snoop_fanout::2                       0      0.00%    100.00% # Request fanout histogram
system.membus.snoop_fanout::overflows               0      0.00%    100.00% # Request fanout histogram
system.membus.snoop_fanout::min_value               0                       # Request fanout histogram
system.membus.snoop_fanout::max_value               1                       # Request fanout histogram
system.membus.snoop_fanout::total                 559                       # Request fanout histogram
system.membus.reqLayer0.occupancy             1149000                       # Layer occupancy (ticks)
system.membus.reqLayer0.utilization               0.7                       # Layer utilization (%)
system.membus.respLayer1.occupancy            2110000                       # Layer occupancy (ticks)
system.membus.respLayer1.utilization              1.2                       # Layer utilization (%)
system.membus.respLayer2.occupancy             857250                       # Layer occupancy (ticks)
system.membus.respLayer2.utilization              0.5                       # Layer utilization (%)
system.voltage_domain.voltage                       1                       # Voltage in Volts
system.clk_domain.clock                          1000                       # Clock period in ticks
system.cpu_voltage_domain.voltage                   1                       # Voltage in Volts
system.mem_ctrls.pwrStateResidencyTicks::UNDEFINED    171920000                       # Cumulative time (in ticks) in various power states
system.mem_ctrls.bytes_read::.cpu.inst          25536                       # Number of bytes read from this memory
system.mem_ctrls.bytes_read::.cpu.data          10240                       # Number of bytes read from this memory
system.mem_ctrls.bytes_read::total              35776                       # Number of bytes read from this memory
system.mem_ctrls.bytes_inst_read::.cpu.inst        25536                       # Number of instructions bytes read from this memory
system.mem_ctrls.bytes_inst_read::total         25536                       # Number of instructions bytes read from this memory
system.mem_ctrls.num_reads::.cpu.inst             399                       # Number of read requests responded to by this memory
system.mem_ctrls.num_reads::.cpu.data             160                       # Number of read requests responded to by this memory
system.mem_ctrls.num_reads::total                 559                       # Number of read requests responded to by this memory
system.mem_ctrls.bw_read::.cpu.inst         148534202                       # Total read bandwidth from this memory (bytes/s)
system.mem_ctrls.bw_read::.cpu.data          59562587                       # Total read bandwidth from this memory (bytes/s)
system.mem_ctrls.bw_read::total             208096789                       # Total read bandwidth from this memory (bytes/s)
system.mem_ctrls.bw_inst_read::.cpu.inst    148534202                       # Instruction read bandwidth from this memory (bytes/s)
system.mem_ctrls.bw_inst_read::total        148534202                       # Instruction read bandwidth from this memory (bytes/s)
system.mem_ctrls.bw_total::.cpu.inst        148534202                       # Total bandwidth to/from this memory (bytes/s)
system.mem_ctrls.bw_total::.cpu.data         59562587                       # Total bandwidth to/from this memory (bytes/s)
system.mem_ctrls.bw_total::total            208096789                       # Total bandwidth to/from this memory (bytes/s)
system.mem_ctrls.avgPriority_.writebacks::samples       106.00                       # Average QoS priority value for accepted requests
system.mem_ctrls.avgPriority_.cpu.inst::samples       372.00                       # Average QoS priority value for accepted requests
system.mem_ctrls.avgPriority_.cpu.data::samples       158.00                       # Average QoS priority value for accepted requests
system.mem_ctrls.priorityMinLatency      0.000000018750                       # per QoS priority minimum request to response latency (s)
system.mem_ctrls.priorityMaxLatency      0.000280423750                       # per QoS priority maximum request to response latency (s)
system.mem_ctrls.numReadWriteTurnArounds            5                       # Number of turnarounds from READ to WRITE
system.mem_ctrls.numWriteReadTurnArounds            5                       # Number of turnarounds from WRITE to READ
system.mem_ctrls.numStayReadState                1211                       # Number of times bus staying in READ state
system.mem_ctrls.numStayWriteState                 79                       # Number of times bus staying in WRITE state
system.mem_ctrls.readReqs                         559                       # Number of read requests accepted
system.mem_ctrls.writeReqs                        110                       # Number of write requests accepted
system.mem_ctrls.readBursts                       559                       # Number of DRAM read bursts, including those serviced by the write queue
system.mem_ctrls.writeBursts                      110                       # Number of DRAM write bursts, including those merged in the write queue
system.mem_ctrls.servicedByWrQ                     29                       # Number of DRAM read bursts serviced by the write queue
system.mem_ctrls.mergedWrBursts                     4                       # Number of DRAM write bursts merged with an existing one
system.mem_ctrls.neitherReadNorWriteReqs            0                       # Number of requests that are neither read nor write
system.mem_ctrls.perBankRdBursts::0                45                       # Per bank write bursts
system.mem_ctrls.perBankRdBursts::1                 2                       # Per bank write bursts
system.mem_ctrls.perBankRdBursts::2                36                       # Per bank write bursts
system.mem_ctrls.perBankRdBursts::3                32                       # Per bank write bursts
system.mem_ctrls.perBankRdBursts::4                55                       # Per bank write bursts
system.mem_ctrls.perBankRdBursts::5                38                       # Per bank write bursts
system.mem_ctrls.perBankRdBursts::6                72                       # Per bank write bursts
system.mem_ctrls.perBankRdBursts::7                32                       # Per bank write bursts
system.mem_ctrls.perBankRdBursts::8                30                       # Per bank write bursts
system.mem_ctrls.perBankRdBursts::9               115                       # Per bank write bursts
system.mem_ctrls.perBankRdBursts::10               17                       # Per bank write bursts
system.mem_ctrls.perBankRdBursts::11               23                       # Per bank write bursts
system.mem_ctrls.perBankRdBursts::12               14                       # Per bank write bursts
system.mem_ctrls.perBankRdBursts::13               11                       # Per bank write bursts
system.mem_ctrls.perBankRdBursts::14                8                       # Per bank write bursts
system.mem_ctrls.perBankRdBursts::15                0                       # Per bank write bursts
system.mem_ctrls.perBankWrBursts::0                17                       # Per bank write bursts
system.mem_ctrls.perBankWrBursts::1                 0                       # Per bank write bursts
system.mem_ctrls.perBankWrBursts::2                11                       # Per bank write bursts
system.mem_ctrls.perBankWrBursts::3                 4                       # Per bank write bursts
system.mem_ctrls.perBankWrBursts::4                 2                       # Per bank write bursts
system.mem_ctrls.perBankWrBursts::5                 4                       # Per bank write bursts
system.mem_ctrls.perBankWrBursts::6                17                       # Per bank write bursts
system.mem_ctrls.perBankWrBursts::7                 9                       # Per bank write bursts
system.mem_ctrls.perBankWrBursts::8                 3                       # Per bank write bursts
system.mem_ctrls.perBankWrBursts::9                13                       # Per bank write bursts
system.mem_ctrls.perBankWrBursts::10                0                       # Per bank write bursts
system.mem_ctrls.perBankWrBursts::11                3                       # Per bank write bursts
system.mem_ctrls.perBankWrBursts::12                1                       # Per bank write bursts
system.mem_ctrls.perBankWrBursts::13                0                       # Per bank write bursts
system.mem_ctrls.perBankWrBursts::14                0                       # Per bank write bursts
system.mem_ctrls.perBankWrBursts::15                0                       # Per bank write bursts
system.mem_ctrls.avgRdQLen                       1.05                       # Average read queue length when enqueuing
system.mem_ctrls.avgWrQLen                      15.99                       # Average write queue length when enqueuing
system.mem_ctrls.totQLat                      4997000                       # Total ticks spent queuing
system.mem_ctrls.totBusLat                    2650000                       # Total ticks spent in databus transfers
system.mem_ctrls.totMemAccLat                14934500                       # Total ticks spent from burst creation until serviced by the DRAM
system.mem_ctrls.avgQLat                      9428.30                       # Average queueing delay per DRAM burst
system.mem_ctrls.avgBusLat                    5000.00                       # Average bus latency per DRAM burst
system.mem_ctrls.avgMemAccLat                28178.30                       # Average memory access latency per DRAM burst
system.mem_ctrls.numRdRetry                         0                       # Number of times read queue was full causing retry
system.mem_ctrls.numWrRetry                         0                       # Number of times write queue was full causing retry
system.mem_ctrls.readRowHits                      394                       # Number of row buffer hits during reads
system.mem_ctrls.writeRowHits                      69                       # Number of row buffer hits during writes
system.mem_ctrls.readRowHitRate                 74.34                       # Row buffer hit rate for reads
system.mem_ctrls.writeRowHitRate                65.09                       # Row buffer hit rate for writes
system.mem_ctrls.readPktSize::0                     0                       # Read request sizes (log2)
system.mem_ctrls.readPktSize::1                     0                       # Read request sizes (log2)
system.mem_ctrls.readPktSize::2                     0                       # Read request sizes (log2)
system.mem_ctrls.readPktSize::3                     0                       # Read request sizes (log2)
system.mem_ctrls.readPktSize::4                     0                       # Read request sizes (log2)
system.mem_ctrls.readPktSize::5                     0                       # Read request sizes (log2)
system.mem_ctrls.readPktSize::6                   559                       # Read request sizes (log2)
system.mem_ctrls.writePktSize::0                    0                       # Write request sizes (log2)
system.mem_ctrls.writePktSize::1                    0                       # Write request sizes (log2)
system.mem_ctrls.writePktSize::2                    0                       # Write request sizes (log2)
system.mem_ctrls.writePktSize::3                    0                       # Write request sizes (log2)
system.mem_ctrls.writePktSize::4                    0                       # Write request sizes (log2)
system.mem_ctrls.writePktSize::5                    0                       # Write request sizes (log2)
system.mem_ctrls.writePktSize::6                  110                       # Write request sizes (log2)
system.mem_ctrls.rdQLenPdf::0                     504                       # What read queue length does an incoming req see
system.mem_ctrls.rdQLenPdf::1                      26                       # What read queue length does an incoming req see
system.mem_ctrls.rdQLenPdf::2                       0                       # What read queue length does an incoming req see
system.mem_ctrls.rdQLenPdf::3                       0                       # What read queue length does an incoming req see
system.mem_ctrls.rdQLenPdf::4                       0                       # What read queue length does an incoming req see
system.mem_ctrls.rdQLenPdf::5                       0                       # What read queue length does an incoming req see
system.mem_ctrls.rdQLenPdf::6                       0                       # What read queue length does an incoming req see
system.mem_ctrls.rdQLenPdf::7                       0                       # What read queue length does an incoming req see
system.mem_ctrls.rdQLenPdf::8                       0                       # What read queue length does an incoming req see
system.mem_ctrls.rdQLenPdf::9                       0                       # What read queue length does an incoming req see
system.mem_ctrls.rdQLenPdf::10                      0                       # What read queue length does an incoming req see
system.mem_ctrls.rdQLenPdf::11                      0                       # What read queue length does an incoming req see
system.mem_ctrls.rdQLenPdf::12                      0                       # What read queue length does an incoming req see
system.mem_ctrls.rdQLenPdf::13                      0                       # What read queue length does an incoming req see
system.mem_ctrls.rdQLenPdf::14                      0                       # What read queue length does an incoming req see
system.mem_ctrls.rdQLenPdf::15                      0                       # What read queue length does an incoming req see
system.mem_ctrls.rdQLenPdf::16                      0                       # What read queue length does an incoming req see
system.mem_ctrls.rdQLenPdf::17                      0                       # What read queue length does an incoming req see
system.mem_ctrls.rdQLenPdf::18                      0                       # What read queue length does an incoming req see
system.mem_ctrls.rdQLenPdf::19                      0                       # What read queue length does an incoming req see
system.mem_ctrls.rdQLenPdf::20                      0                       # What read queue length does an incoming req see
system.mem_ctrls.rdQLenPdf::21                      0                       # What read queue length does an incoming req see
system.mem_ctrls.rdQLenPdf::22                      0                       # What read queue length does an incoming req see
system.mem_ctrls.rdQLenPdf::23                      0                       # What read queue length does an incoming req see
system.mem_ctrls.rdQLenPdf::24                      0                       # What read queue length does an incoming req see
system.mem_ctrls.rdQLenPdf::25                      0                       # What read queue length does an incoming req see
system.mem_ctrls.rdQLenPdf::26                      0                       # What read queue length does an incoming req see
system.mem_ctrls.rdQLenPdf::27                      0                       # What read queue length does an incoming req see
system.mem_ctrls.rdQLenPdf::28                      0                       # What read queue length does an incoming req see
system.mem_ctrls.rdQLenPdf::29                      0                       # What read queue length does an incoming req see
system.mem_ctrls.rdQLenPdf::30                      0                       # What read queue length does an incoming req see
system.mem_ctrls.rdQLenPdf::31                      0                       # What read queue length does an incoming req see
system.mem_ctrls.wrQLenPdf::0                       1                       # What write queue length does an incoming req see
system.mem_ctrls.wrQLenPdf::1                       1                       # What write queue length does an incoming req see
system.mem_ctrls.wrQLenPdf::2                       1                       # What write queue length does an incoming req see
system.mem_ctrls.wrQLenPdf::3                       1                       # What write queue length does an incoming req see
system.mem_ctrls.wrQLenPdf::4                       1                       # What write queue length does an incoming req see
system.mem_ctrls.wrQLenPdf::5                       1                       # What write queue length does an incoming req see
system.mem_ctrls.wrQLenPdf::6                       1                       # What write queue length does an incoming req see
system.mem_ctrls.wrQLenPdf::7                       1                       # What write queue length does an incoming req see
system.mem_ctrls.wrQLenPdf::8                       1                       # What write queue length does an incoming req see
system.mem_ctrls.wrQLenPdf::9                       1                       # What write queue length does an incoming req see
system.mem_ctrls.wrQLenPdf::10                      1                       # What write queue length does an incoming req see
system.mem_ctrls.wrQLenPdf::11                      1                       # What write queue length does an incoming req see
system.mem_ctrls.wrQLenPdf::12                      1                       # What write queue length does an incoming req see
system.mem_ctrls.wrQLenPdf::13                      1                       # What write queue length does an incoming req see
system.mem_ctrls.wrQLenPdf::14                      1                       # What write queue length does an incoming req see
system.mem_ctrls.wrQLenPdf::15                      3                       # What write queue length does an incoming req see
system.mem_ctrls.wrQLenPdf::16                      3                       # What write queue length does an incoming req see
system.mem_ctrls.wrQLenPdf::17                      6                       # What write queue length does an incoming req see
system.mem_ctrls.wrQLenPdf::18                      6                       # What write queue length does an incoming req see
system.mem_ctrls.wrQLenPdf::19                      6                       # What write queue length does an incoming req see
system.mem_ctrls.wrQLenPdf::20                      6                       # What write queue length does an incoming req see
system.mem_ctrls.wrQLenPdf::21                      6                       # What write queue length does an incoming req see
system.mem_ctrls.wrQLenPdf::22                      5                       # What write queue length does an incoming req see
system.mem_ctrls.wrQLenPdf::23                      5                       # What write queue length does an incoming req see
system.mem_ctrls.wrQLenPdf::24                      5                       # What write queue length does an incoming req see
system.mem_ctrls.wrQLenPdf::25                      5                       # What write queue length does an incoming req see
system.mem_ctrls.wrQLenPdf::26                      5                       # What write queue length does an incoming req see
system.mem_ctrls.wrQLenPdf::27                      5                       # What write queue length does an incoming req see
system.mem_ctrls.wrQLenPdf::28                      5                       # What write queue length does an incoming req see
system.mem_ctrls.wrQLenPdf::29                      5                       # What write queue length does an incoming req see
system.mem_ctrls.wrQLenPdf::30                      5                       # What write queue length does an incoming req see
system.mem_ctrls.wrQLenPdf::31                      5                       # What write queue length does an incoming req see
system.mem_ctrls.wrQLenPdf::32                      5                       # What write queue length does an incoming req see
system.mem_ctrls.wrQLenPdf::33                      0                       # What write queue length does an incoming req see
system.mem_ctrls.wrQLenPdf::34                      0                       # What write queue length does an incoming req see
system.mem_ctrls.wrQLenPdf::35                      0                       # What write queue length does an incoming req see
system.mem_ctrls.wrQLenPdf::36                      0                       # What write queue length does an incoming req see
system.mem_ctrls.wrQLenPdf::37                      0                       # What write queue length does an incoming req see
system.mem_ctrls.wrQLenPdf::38                      0                       # What write queue length does an incoming req see
system.mem_ctrls.wrQLenPdf::39                      0                       # What write queue length does an incoming req see
system.mem_ctrls.wrQLenPdf::40                      0                       # What write queue length does an incoming req see
system.mem_ctrls.wrQLenPdf::41                      0                       # What write queue length does an incoming req see
system.mem_ctrls.wrQLenPdf::42                      0                       # What write queue length does an incoming req see
system.mem_ctrls.wrQLenPdf::43                      0                       # What write queue length does an incoming req see
system.mem_ctrls.wrQLenPdf::44                      0                       # What write queue length does an incoming req see
system.mem_ctrls.wrQLenPdf::45                      0                       # What write queue length does an incoming req see
system.mem_ctrls.wrQLenPdf::46                      0                       # What write queue length does an incoming req see
system.mem_ctrls.wrQLenPdf::47                      0                       # What write queue length does an incoming req see
system.mem_ctrls.wrQLenPdf::48                      0                       # What write queue length does an incoming req see
system.mem_ctrls.wrQLenPdf::49                      0                       # What write queue length does an incoming req see
system.mem_ctrls.wrQLenPdf::50                      0                       # What write queue length does an incoming req see
system.mem_ctrls.wrQLenPdf::51                      0                       # What write queue length does an incoming req see
system.mem_ctrls.wrQLenPdf::52                      0                       # What write queue length does an incoming req see
system.mem_ctrls.wrQLenPdf::53                      0                       # What write queue length does an incoming req see
system.mem_ctrls.wrQLenPdf::54                      0                       # What write queue length does an incoming req see
system.mem_ctrls.wrQLenPdf::55                      0                       # What write queue length does an incoming req see
system.mem_ctrls.wrQLenPdf::56                      0                       # What write queue length does an incoming req see
system.mem_ctrls.wrQLenPdf::57                      0                       # What write queue length does an incoming req see
system.mem_ctrls.wrQLenPdf::58                      0                       # What write queue length does an incoming req see
system.mem_ctrls.wrQLenPdf::59                      0                       # What write queue length does an incoming req see
system.mem_ctrls.wrQLenPdf::60                      0                       # What write queue length does an incoming req see
system.mem_ctrls.wrQLenPdf::61                      0                       # What write queue length does an incoming req see
system.mem_ctrls.wrQLenPdf::62                      0                       # What write queue length does an incoming req see
system.mem_ctrls.wrQLenPdf::63                      0                       # What write queue length does an incoming req see
system.mem_ctrls.bytesPerActivate::samples          150                       # Bytes accessed per row activation
system.mem_ctrls.bytesPerActivate::mean    261.120000                       # Bytes accessed per row activation
system.mem_ctrls.bytesPerActivate::gmean   185.107099                       # Bytes accessed per row activation
system.mem_ctrls.bytesPerActivate::stdev   222.632991                       # Bytes accessed per row activation
system.mem_ctrls.bytesPerActivate::0-127           42     28.00%     28.00% # Bytes accessed per row activation
system.mem_ctrls.bytesPerActivate::128-255           43     28.67%     56.67% # Bytes accessed per row activation
system.mem_ctrls.bytesPerActivate::256-383           26     17.33%     74.00% # Bytes accessed per row activation
system.mem_ctrls.bytesPerActivate::384-511           13      8.67%     82.67% # Bytes accessed per row activation
system.mem_ctrls.bytesPerActivate::512-639           13      8.67%     91.33% # Bytes accessed per row activation
system.mem_ctrls.bytesPerActivate::640-767            7      4.67%     96.00% # Bytes accessed per row activation
system.mem_ctrls.bytesPerActivate::768-895            2      1.33%     97.33% # Bytes accessed per row activation
system.mem_ctrls.bytesPerActivate::896-1023            1      0.67%     98.00% # Bytes accessed per row activation
system.mem_ctrls.bytesPerActivate::1024-1151            3      2.00%    100.00% # Bytes accessed per row activation
system.mem_ctrls.bytesPerActivate::total          150                       # Bytes accessed per row activation
system.mem_ctrls.rdPerTurnAround::samples            5                       # Reads before turning the bus around for writes
system.mem_ctrls.rdPerTurnAround::mean     102.800000                       # Reads before turning the bus around for writes
system.mem_ctrls.rdPerTurnAround::gmean     54.293840                       # Reads before turning the bus around for writes
system.mem_ctrls.rdPerTurnAround::stdev    150.052324                       # Reads before turning the bus around for writes
system.mem_ctrls.rdPerTurnAround::16-31             2     40.00%     40.00% # Reads before turning the bus around for writes
system.mem_ctrls.rdPerTurnAround::32-47             1     20.00%     60.00% # Reads before turning the bus around for writes
system.mem_ctrls.rdPerTurnAround::48-63             1     20.00%     80.00% # Reads before turning the bus around for writes
system.mem_ctrls.rdPerTurnAround::368-383            1     20.00%    100.00% # Reads before turning the bus around for writes
system.mem_ctrls.rdPerTurnAround::total             5                       # Reads before turning the bus around for writes
system.mem_ctrls.wrPerTurnAround::samples            5                       # Writes before turning the bus around for reads
system.mem_ctrls.wrPerTurnAround::mean      16.800000                       # Writes before turning the bus around for reads
system.mem_ctrls.wrPerTurnAround::gmean     16.771851                       # Writes before turning the bus around for reads
system.mem_ctrls.wrPerTurnAround::stdev      1.095445                       # Writes before turning the bus around for reads
system.mem_ctrls.wrPerTurnAround::16                3     60.00%     60.00% # Writes before turning the bus around for reads
system.mem_ctrls.wrPerTurnAround::18                2     40.00%    100.00% # Writes before turning the bus around for reads
system.mem_ctrls.wrPerTurnAround::total             5                       # Writes before turning the bus around for reads
system.mem_ctrls.bytesReadDRAM                  33920                       # Total number of bytes read from DRAM
system.mem_ctrls.bytesReadWrQ                    1856                       # Total number of bytes read from write queue
system.mem_ctrls.bytesWritten                    5376                       # Total number of bytes written to DRAM
system.mem_ctrls.bytesReadSys                   35776                       # Total read bytes from the system interface side
system.mem_ctrls.bytesWrittenSys                 7040                       # Total written bytes from the system interface side
system.mem_ctrls.avgRdBW                       197.30                       # Average DRAM read bandwidth in MiByte/s
system.mem_ctrls.avgWrBW                        31.27                       # Average achieved write bandwidth in MiByte/s
system.mem_ctrls.avgRdBWSys                    208.10                       # Average system read bandwidth in MiByte/s
system.mem_ctrls.avgWrBWSys                     40.95                       # Average system write bandwidth in MiByte/s
system.mem_ctrls.peakBW                      12800.00                       # Theoretical peak bandwidth in MiByte/s
system.mem_ctrls.busUtil                         1.79                       # Data bus utilization in percentage
system.mem_ctrls.busUtilRead                     1.54                       # Data bus utilization in percentage for reads
system.mem_ctrls.busUtilWrite                    0.24                       # Data bus utilization in percentage for writes
system.mem_ctrls.totGap                     171760000                       # Total gap between requests
system.mem_ctrls.avgGap                     256741.41                       # Average gap between requests
system.mem_ctrls.masterReadBytes::.cpu.inst        23808                       # Per-master bytes read from memory
system.mem_ctrls.masterReadBytes::.cpu.data        10112                       # Per-master bytes read from memory
system.mem_ctrls.masterWriteBytes::.writebacks         5376                       # Per-master bytes write to memory
system.mem_ctrls.masterReadRate::.cpu.inst 138483015.355979532003                       # Per-master bytes read from memory rate (Bytes/sec)
system.mem_ctrls.masterReadRate::.cpu.data 58818054.909260123968                       # Per-master bytes read from memory rate (Bytes/sec)
system.mem_ctrls.masterWriteRate::.writebacks 31270358.306188926101                       # Per-master bytes write to memory rate (Bytes/sec)
system.mem_ctrls.masterReadAccesses::.cpu.inst          399                       # Per-master read serviced memory accesses
system.mem_ctrls.masterReadAccesses::.cpu.data          160                       # Per-master read serviced memory accesses
system.mem_ctrls.masterWriteAccesses::.writebacks          110                       # Per-master write serviced memory accesses
system.mem_ctrls.masterReadTotalLat::.cpu.inst     10045000                       # Per-master read total memory access latency
system.mem_ctrls.masterReadTotalLat::.cpu.data      4889500                       # Per-master read total memory access latency
system.mem_ctrls.masterWriteTotalLat::.writebacks   2534678750                       # Per-master write total memory access latency
system.mem_ctrls.masterReadAvgLat::.cpu.inst     25175.44                       # Per-master read average memory access latency
system.mem_ctrls.masterReadAvgLat::.cpu.data     30559.38                       # Per-master read average memory access latency
system.mem_ctrls.masterWriteAvgLat::.writebacks  23042534.09                       # Per-master write average memory access latency
system.mem_ctrls.pageHitRate                    72.80                       # Row buffer hit rate, read and write combined
system.mem_ctrls.rank1.actEnergy               564060                       # Energy for activate commands per rank (pJ)
system.mem_ctrls.rank1.preEnergy               296010                       # Energy for precharge commands per rank (pJ)
system.mem_ctrls.rank1.readEnergy             1556520                       # Energy for read commands per rank (pJ)
system.mem_ctrls.rank1.writeEnergy             104400                       # Energy for write commands per rank (pJ)
system.mem_ctrls.rank1.refreshEnergy     13522080.000000                       # Energy for refresh commands per rank (pJ)
system.mem_ctrls.rank1.actBackEnergy         60688470                       # Energy for active background per rank (pJ)
system.mem_ctrls.rank1.preBackEnergy         14911200                       # Energy for precharge background per rank (pJ)
system.mem_ctrls.rank1.actPowerDownEnergy            0                       # Energy for active power-down per rank (pJ)
system.mem_ctrls.rank1.prePowerDownEnergy            0                       # Energy for precharge power-down per rank (pJ)
system.mem_ctrls.rank1.selfRefreshEnergy            0                       # Energy for self refresh per rank (pJ)
system.mem_ctrls.rank1.totalEnergy           91642740                       # Total energy per rank (pJ)
system.mem_ctrls.rank1.averagePower        533.054560                       # Core power per rank (mW)
system.mem_ctrls.rank1.totalIdleTime                0                       # Total Idle time Per DRAM Rank
system.mem_ctrls.rank1.memoryStateTime::IDLE     38198500                       # Time in different power states
system.mem_ctrls.rank1.memoryStateTime::REF      5720000                       # Time in different power states
system.mem_ctrls.rank1.memoryStateTime::SREF            0                       # Time in different power states
system.mem_ctrls.rank1.memoryStateTime::PRE_PDN            0                       # Time in different power states
system.mem_ctrls.rank1.memoryStateTime::ACT    128001500                       # Time in different power states
system.mem_ctrls.rank1.memoryStateTime::ACT_PDN            0                       # Time in different power states
system.mem_ctrls.rank0.actEnergy               514080                       # Energy for activate commands per rank (pJ)
system.mem_ctrls.rank0.preEnergy               273240                       # Energy for precharge commands per rank (pJ)
system.mem_ctrls.rank0.readEnergy             2227680                       # Energy for read commands per rank (pJ)
system.mem_ctrls.rank0.writeEnergy             334080                       # Energy for write commands per rank (pJ)
system.mem_ctrls.rank0.refreshEnergy     13522080.000000                       # Energy for refresh commands per rank (pJ)
system.mem_ctrls.rank0.actBackEnergy         56168370                       # Energy for active background per rank (pJ)
system.mem_ctrls.rank0.preBackEnergy         18717600                       # Energy for precharge background per rank (pJ)
system.mem_ctrls.rank0.actPowerDownEnergy            0                       # Energy for active power-down per rank (pJ)
system.mem_ctrls.rank0.prePowerDownEnergy            0                       # Energy for precharge power-down per rank (pJ)
system.mem_ctrls.rank0.selfRefreshEnergy            0                       # Energy for self refresh per rank (pJ)
system.mem_ctrls.rank0.totalEnergy           91757130                       # Total energy per rank (pJ)
system.mem_ctrls.rank0.averagePower        533.719928                       # Core power per rank (mW)
system.mem_ctrls.rank0.totalIdleTime                0                       # Total Idle time Per DRAM Rank
system.mem_ctrls.rank0.memoryStateTime::IDLE     48152500                       # Time in different power states
system.mem_ctrls.rank0.memoryStateTime::REF      5720000                       # Time in different power states
system.mem_ctrls.rank0.memoryStateTime::SREF            0                       # Time in different power states
system.mem_ctrls.rank0.memoryStateTime::PRE_PDN            0                       # Time in different power states
system.mem_ctrls.rank0.memoryStateTime::ACT    118047500                       # Time in different power states
system.mem_ctrls.rank0.memoryStateTime::ACT_PDN            0                       # Time in different power states
system.cpu_clk_domain.clock                     10000                       # Clock period in ticks
system.cpu.pwrStateResidencyTicks::ON       171920000                       # Cumulative time (in ticks) in various power states
system.cpu.icache.pwrStateResidencyTicks::UNDEFINED    171920000                       # Cumulative time (in ticks) in various power states
system.cpu.icache.demand_hits::.cpu.inst         3066                       # number of demand (read+write) hits
system.cpu.icache.demand_hits::total             3066                       # number of demand (read+write) hits
system.cpu.icache.overall_hits::.cpu.inst         3066                       # number of overall hits
system.cpu.icache.overall_hits::total            3066                       # number of overall hits
system.cpu.icache.demand_misses::.cpu.inst          399                       # number of demand (read+write) misses
system.cpu.icache.demand_misses::total            399                       # number of demand (read+write) misses
system.cpu.icache.overall_misses::.cpu.inst          399                       # number of overall misses
system.cpu.icache.overall_misses::total           399                       # number of overall misses
system.cpu.icache.demand_miss_latency::.cpu.inst     38850000                       # number of demand (read+write) miss cycles
system.cpu.icache.demand_miss_latency::total     38850000                       # number of demand (read+write) miss cycles
system.cpu.icache.overall_miss_latency::.cpu.inst     38850000                       # number of overall miss cycles
system.cpu.icache.overall_miss_latency::total     38850000                       # number of overall miss cycles
system.cpu.icache.demand_accesses::.cpu.inst         3465                       # number of demand (read+write) accesses
system.cpu.icache.demand_accesses::total         3465                       # number of demand (read+write) accesses
system.cpu.icache.overall_accesses::.cpu.inst         3465                       # number of overall (read+write) accesses
system.cpu.icache.overall_accesses::total         3465                       # number of overall (read+write) accesses
system.cpu.icache.demand_miss_rate::.cpu.inst     0.115152                       # miss rate for demand accesses
system.cpu.icache.demand_miss_rate::total     0.115152                       # miss rate for demand accesses
system.cpu.icache.overall_miss_rate::.cpu.inst     0.115152                       # miss rate for overall accesses
system.cpu.icache.overall_miss_rate::total     0.115152                       # miss rate for overall accesses
system.cpu.icache.demand_avg_miss_latency::.cpu.inst 97368.421053                       # average overall miss latency
system.cpu.icache.demand_avg_miss_latency::total 97368.421053                       # average overall miss latency
system.cpu.icache.overall_avg_miss_latency::.cpu.inst 97368.421053                       # average overall miss latency
system.cpu.icache.overall_avg_miss_latency::total 97368.421053                       # average overall miss latency
system.cpu.icache.blocked_cycles::no_mshrs            0                       # number of cycles access was blocked
system.cpu.icache.blocked_cycles::no_targets            0                       # number of cycles access was blocked
system.cpu.icache.blocked::no_mshrs                 0                       # number of cycles access was blocked
system.cpu.icache.blocked::no_targets               0                       # number of cycles access was blocked
system.cpu.icache.avg_blocked_cycles::no_mshrs          nan                       # average number of cycles each access was blocked
system.cpu.icache.avg_blocked_cycles::no_targets          nan                       # average number of cycles each access was blocked
system.cpu.icache.writebacks::.writebacks          118                       # number of writebacks
system.cpu.icache.writebacks::total               118                       # number of writebacks
system.cpu.icache.demand_mshr_misses::.cpu.inst          399                       # number of demand (read+write) MSHR misses
system.cpu.icache.demand_mshr_misses::total          399                       # number of demand (read+write) MSHR misses
system.cpu.icache.overall_mshr_misses::.cpu.inst          399                       # number of overall MSHR misses
system.cpu.icache.overall_mshr_misses::total          399                       # number of overall MSHR misses
system.cpu.icache.demand_mshr_miss_latency::.cpu.inst     30120000                       # number of demand (read+write) MSHR miss cycles
system.cpu.icache.demand_mshr_miss_latency::total     30120000                       # number of demand (read+write) MSHR miss cycles
system.cpu.icache.overall_mshr_miss_latency::.cpu.inst     30120000                       # number of overall MSHR miss cycles
system.cpu.icache.overall_mshr_miss_latency::total     30120000                       # number of overall MSHR miss cycles
system.cpu.icache.demand_mshr_miss_rate::.cpu.inst     0.115152                       # mshr miss rate for demand accesses
system.cpu.icache.demand_mshr_miss_rate::total     0.115152                       # mshr miss rate for demand accesses
system.cpu.icache.overall_mshr_miss_rate::.cpu.inst     0.115152                       # mshr miss rate for overall accesses
system.cpu.icache.overall_mshr_miss_rate::total     0.115152                       # mshr miss rate for overall accesses
system.cpu.icache.demand_avg_mshr_miss_latency::.cpu.inst 75488.721805                       # average overall mshr miss latency
system.cpu.icache.demand_avg_mshr_miss_latency::total 75488.721805                       # average overall mshr miss latency
system.cpu.icache.overall_avg_mshr_miss_latency::.cpu.inst 75488.721805                       # average overall mshr miss latency
system.cpu.icache.overall_avg_mshr_miss_latency::total 75488.721805                       # average overall mshr miss latency
system.cpu.icache.replacements                    118                       # number of replacements
system.cpu.icache.ReadReq_hits::.cpu.inst         3066                       # number of ReadReq hits
system.cpu.icache.ReadReq_hits::total            3066                       # number of ReadReq hits
system.cpu.icache.ReadReq_misses::.cpu.inst          399                       # number of ReadReq misses
system.cpu.icache.ReadReq_misses::total           399                       # number of ReadReq misses
system.cpu.icache.ReadReq_miss_latency::.cpu.inst     38850000                       # number of ReadReq miss cycles
system.cpu.icache.ReadReq_miss_latency::total     38850000                       # number of ReadReq miss cycles
system.cpu.icache.ReadReq_accesses::.cpu.inst         3465                       # number of ReadReq accesses(hits+misses)
system.cpu.icache.ReadReq_accesses::total         3465                       # number of ReadReq accesses(hits+misses)
system.cpu.icache.ReadReq_miss_rate::.cpu.inst     0.115152                       # miss rate for ReadReq accesses
system.cpu.icache.ReadReq_miss_rate::total     0.115152                       # miss rate for ReadReq accesses
system.cpu.icache.ReadReq_avg_miss_latency::.cpu.inst 97368.421053                       # average ReadReq miss latency
system.cpu.icache.ReadReq_avg_miss_latency::total 97368.421053                       # average ReadReq miss latency
system.cpu.icache.ReadReq_mshr_misses::.cpu.inst          399                       # number of ReadReq MSHR misses
system.cpu.icache.ReadReq_mshr_misses::total          399                       # number of ReadReq MSHR misses
system.cpu.icache.ReadReq_mshr_miss_latency::.cpu.inst     30120000                       # number of ReadReq MSHR miss cycles
system.cpu.icache.ReadReq_mshr_miss_latency::total     30120000                       # number of ReadReq MSHR miss cycles
system.cpu.icache.ReadReq_mshr_miss_rate::.cpu.inst     0.115152                       # mshr miss rate for ReadReq accesses
system.cpu.icache.ReadReq_mshr_miss_rate::total     0.115152                       # mshr miss rate for ReadReq accesses
system.cpu.icache.ReadReq_avg_mshr_miss_latency::.cpu.inst 75488.721805                       # average ReadReq mshr miss latency
system.cpu.icache.ReadReq_avg_mshr_miss_latency::total 75488.721805                       # average ReadReq mshr miss latency
system.cpu.icache.tags.pwrStateResidencyTicks::UNDEFINED    171920000                       # Cumulative time (in ticks) in various power states
system.cpu.icache.tags.tagsinuse           173.872610                       # Cycle average of tags in use
system.cpu.icache.tags.total_refs                3465                       # Total number of references to valid blocks.
system.cpu.icache.tags.sampled_refs               399                       # Sample count of references to valid blocks.
system.cpu.icache.tags.avg_refs              8.684211                       # Average number of references to valid blocks.
system.cpu.icache.tags.warmup_cycle             93000                       # Cycle when the warmup percentage was hit.
system.cpu.icache.tags.occ_blocks::.cpu.inst   173.872610                       # Average occupied blocks per requestor
system.cpu.icache.tags.occ_percent::.cpu.inst     0.339595                       # Average percentage of cache occupancy
system.cpu.icache.tags.occ_percent::total     0.339595                       # Average percentage of cache occupancy
system.cpu.icache.tags.occ_task_id_blocks::1024          281                       # Occupied blocks per task id
system.cpu.icache.tags.age_task_id_blocks_1024::0           30                       # Occupied blocks per task id
system.cpu.icache.tags.age_task_id_blocks_1024::1          126                       # Occupied blocks per task id
system.cpu.icache.tags.age_task_id_blocks_1024::2          125                       # Occupied blocks per task id
system.cpu.icache.tags.occ_task_id_percent::1024     0.548828                       # Percentage of cache occupancy per task id
system.cpu.icache.tags.tag_accesses              7329                       # Number of tag accesses
system.cpu.icache.tags.data_accesses             7329                       # Number of data accesses
system.cpu.dtb.walker.pwrStateResidencyTicks::UNDEFINED    171920000                       # Cumulative time (in ticks) in various power states
system.cpu.dtb.stage2_mmu.stage2_tlb.walker.pwrStateResidencyTicks::UNDEFINED    171920000                       # Cumulative time (in ticks) in various power states
system.cpu.dcache.pwrStateResidencyTicks::UNDEFINED    171920000                       # Cumulative time (in ticks) in various power states
system.cpu.dcache.demand_hits::.cpu.data         2860                       # number of demand (read+write) hits
system.cpu.dcache.demand_hits::total             2860                       # number of demand (read+write) hits
system.cpu.dcache.overall_hits::.cpu.data         2882                       # number of overall hits
system.cpu.dcache.overall_hits::total            2882                       # number of overall hits
system.cpu.dcache.demand_misses::.cpu.data          193                       # number of demand (read+write) misses
system.cpu.dcache.demand_misses::total            193                       # number of demand (read+write) misses
system.cpu.dcache.overall_misses::.cpu.data          204                       # number of overall misses
system.cpu.dcache.overall_misses::total           204                       # number of overall misses
system.cpu.dcache.demand_miss_latency::.cpu.data     19524000                       # number of demand (read+write) miss cycles
system.cpu.dcache.demand_miss_latency::total     19524000                       # number of demand (read+write) miss cycles
system.cpu.dcache.overall_miss_latency::.cpu.data     19524000                       # number of overall miss cycles
system.cpu.dcache.overall_miss_latency::total     19524000                       # number of overall miss cycles
system.cpu.dcache.demand_accesses::.cpu.data         3053                       # number of demand (read+write) accesses
system.cpu.dcache.demand_accesses::total         3053                       # number of demand (read+write) accesses
system.cpu.dcache.overall_accesses::.cpu.data         3086                       # number of overall (read+write) accesses
system.cpu.dcache.overall_accesses::total         3086                       # number of overall (read+write) accesses
system.cpu.dcache.demand_miss_rate::.cpu.data     0.063217                       # miss rate for demand accesses
system.cpu.dcache.demand_miss_rate::total     0.063217                       # miss rate for demand accesses
system.cpu.dcache.overall_miss_rate::.cpu.data     0.066105                       # miss rate for overall accesses
system.cpu.dcache.overall_miss_rate::total     0.066105                       # miss rate for overall accesses
system.cpu.dcache.demand_avg_miss_latency::.cpu.data 101160.621762                       # average overall miss latency
system.cpu.dcache.demand_avg_miss_latency::total 101160.621762                       # average overall miss latency
system.cpu.dcache.overall_avg_miss_latency::.cpu.data 95705.882353                       # average overall miss latency
system.cpu.dcache.overall_avg_miss_latency::total 95705.882353                       # average overall miss latency
system.cpu.dcache.blocked_cycles::no_mshrs            0                       # number of cycles access was blocked
system.cpu.dcache.blocked_cycles::no_targets            0                       # number of cycles access was blocked
system.cpu.dcache.blocked::no_mshrs                 0                       # number of cycles access was blocked
system.cpu.dcache.blocked::no_targets               0                       # number of cycles access was blocked
system.cpu.dcache.avg_blocked_cycles::no_mshrs          nan                       # average number of cycles each access was blocked
system.cpu.dcache.avg_blocked_cycles::no_targets          nan                       # average number of cycles each access was blocked
system.cpu.dcache.demand_mshr_hits::.cpu.data           42                       # number of demand (read+write) MSHR hits
system.cpu.dcache.demand_mshr_hits::total           42                       # number of demand (read+write) MSHR hits
system.cpu.dcache.overall_mshr_hits::.cpu.data           42                       # number of overall MSHR hits
system.cpu.dcache.overall_mshr_hits::total           42                       # number of overall MSHR hits
system.cpu.dcache.demand_mshr_misses::.cpu.data          151                       # number of demand (read+write) MSHR misses
system.cpu.dcache.demand_mshr_misses::total          151                       # number of demand (read+write) MSHR misses
system.cpu.dcache.overall_mshr_misses::.cpu.data          160                       # number of overall MSHR misses
system.cpu.dcache.overall_mshr_misses::total          160                       # number of overall MSHR misses
system.cpu.dcache.demand_mshr_miss_latency::.cpu.data     12521000                       # number of demand (read+write) MSHR miss cycles
system.cpu.dcache.demand_mshr_miss_latency::total     12521000                       # number of demand (read+write) MSHR miss cycles
system.cpu.dcache.overall_mshr_miss_latency::.cpu.data     13212000                       # number of overall MSHR miss cycles
system.cpu.dcache.overall_mshr_miss_latency::total     13212000                       # number of overall MSHR miss cycles
system.cpu.dcache.demand_mshr_miss_rate::.cpu.data     0.049460                       # mshr miss rate for demand accesses
system.cpu.dcache.demand_mshr_miss_rate::total     0.049460                       # mshr miss rate for demand accesses
system.cpu.dcache.overall_mshr_miss_rate::.cpu.data     0.051847                       # mshr miss rate for overall accesses
system.cpu.dcache.overall_mshr_miss_rate::total     0.051847                       # mshr miss rate for overall accesses
system.cpu.dcache.demand_avg_mshr_miss_latency::.cpu.data 82920.529801                       # average overall mshr miss latency
system.cpu.dcache.demand_avg_mshr_miss_latency::total 82920.529801                       # average overall mshr miss latency
system.cpu.dcache.overall_avg_mshr_miss_latency::.cpu.data        82575                       # average overall mshr miss latency
system.cpu.dcache.overall_avg_mshr_miss_latency::total        82575                       # average overall mshr miss latency
system.cpu.dcache.replacements                      0                       # number of replacements
system.cpu.dcache.ReadReq_hits::.cpu.data         1476                       # number of ReadReq hits
system.cpu.dcache.ReadReq_hits::total            1476                       # number of ReadReq hits
system.cpu.dcache.ReadReq_misses::.cpu.data           95                       # number of ReadReq misses
system.cpu.dcache.ReadReq_misses::total            95                       # number of ReadReq misses
system.cpu.dcache.ReadReq_miss_latency::.cpu.data      9856000                       # number of ReadReq miss cycles
system.cpu.dcache.ReadReq_miss_latency::total      9856000                       # number of ReadReq miss cycles
system.cpu.dcache.ReadReq_accesses::.cpu.data         1571                       # number of ReadReq accesses(hits+misses)
system.cpu.dcache.ReadReq_accesses::total         1571                       # number of ReadReq accesses(hits+misses)
system.cpu.dcache.ReadReq_miss_rate::.cpu.data     0.060471                       # miss rate for ReadReq accesses
system.cpu.dcache.ReadReq_miss_rate::total     0.060471                       # miss rate for ReadReq accesses
system.cpu.dcache.ReadReq_avg_miss_latency::.cpu.data 103747.368421                       # average ReadReq miss latency
system.cpu.dcache.ReadReq_avg_miss_latency::total 103747.368421                       # average ReadReq miss latency
system.cpu.dcache.ReadReq_mshr_hits::.cpu.data            5                       # number of ReadReq MSHR hits
system.cpu.dcache.ReadReq_mshr_hits::total            5                       # number of ReadReq MSHR hits
system.cpu.dcache.ReadReq_mshr_misses::.cpu.data           90                       # number of ReadReq MSHR misses
system.cpu.dcache.ReadReq_mshr_misses::total           90                       # number of ReadReq MSHR misses
system.cpu.dcache.ReadReq_mshr_miss_latency::.cpu.data      7387000                       # number of ReadReq MSHR miss cycles
system.cpu.dcache.ReadReq_mshr_miss_latency::total      7387000                       # number of ReadReq MSHR miss cycles
system.cpu.dcache.ReadReq_mshr_miss_rate::.cpu.data     0.057288                       # mshr miss rate for ReadReq accesses
system.cpu.dcache.ReadReq_mshr_miss_rate::total     0.057288                       # mshr miss rate for ReadReq accesses
system.cpu.dcache.ReadReq_avg_mshr_miss_latency::.cpu.data 82077.777778                       # average ReadReq mshr miss latency
system.cpu.dcache.ReadReq_avg_mshr_miss_latency::total 82077.777778                       # average ReadReq mshr miss latency
system.cpu.dcache.WriteReq_hits::.cpu.data         1384                       # number of WriteReq hits
system.cpu.dcache.WriteReq_hits::total           1384                       # number of WriteReq hits
system.cpu.dcache.WriteReq_misses::.cpu.data           98                       # number of WriteReq misses
system.cpu.dcache.WriteReq_misses::total           98                       # number of WriteReq misses
system.cpu.dcache.WriteReq_miss_latency::.cpu.data      9668000                       # number of WriteReq miss cycles
system.cpu.dcache.WriteReq_miss_latency::total      9668000                       # number of WriteReq miss cycles
system.cpu.dcache.WriteReq_accesses::.cpu.data         1482                       # number of WriteReq accesses(hits+misses)
system.cpu.dcache.WriteReq_accesses::total         1482                       # number of WriteReq accesses(hits+misses)
system.cpu.dcache.WriteReq_miss_rate::.cpu.data     0.066127                       # miss rate for WriteReq accesses
system.cpu.dcache.WriteReq_miss_rate::total     0.066127                       # miss rate for WriteReq accesses
system.cpu.dcache.WriteReq_avg_miss_latency::.cpu.data 98653.061224                       # average WriteReq miss latency
system.cpu.dcache.WriteReq_avg_miss_latency::total 98653.061224                       # average WriteReq miss latency
system.cpu.dcache.WriteReq_mshr_hits::.cpu.data           37                       # number of WriteReq MSHR hits
system.cpu.dcache.WriteReq_mshr_hits::total           37                       # number of WriteReq MSHR hits
system.cpu.dcache.WriteReq_mshr_misses::.cpu.data           61                       # number of WriteReq MSHR misses
system.cpu.dcache.WriteReq_mshr_misses::total           61                       # number of WriteReq MSHR misses
system.cpu.dcache.WriteReq_mshr_miss_latency::.cpu.data      5134000                       # number of WriteReq MSHR miss cycles
system.cpu.dcache.WriteReq_mshr_miss_latency::total      5134000                       # number of WriteReq MSHR miss cycles
system.cpu.dcache.WriteReq_mshr_miss_rate::.cpu.data     0.041161                       # mshr miss rate for WriteReq accesses
system.cpu.dcache.WriteReq_mshr_miss_rate::total     0.041161                       # mshr miss rate for WriteReq accesses
system.cpu.dcache.WriteReq_avg_mshr_miss_latency::.cpu.data 84163.934426                       # average WriteReq mshr miss latency
system.cpu.dcache.WriteReq_avg_mshr_miss_latency::total 84163.934426                       # average WriteReq mshr miss latency
system.cpu.dcache.SoftPFReq_hits::.cpu.data           22                       # number of SoftPFReq hits
system.cpu.dcache.SoftPFReq_hits::total            22                       # number of SoftPFReq hits
system.cpu.dcache.SoftPFReq_misses::.cpu.data           11                       # number of SoftPFReq misses
system.cpu.dcache.SoftPFReq_misses::total           11                       # number of SoftPFReq misses
system.cpu.dcache.SoftPFReq_accesses::.cpu.data           33                       # number of SoftPFReq accesses(hits+misses)
system.cpu.dcache.SoftPFReq_accesses::total           33                       # number of SoftPFReq accesses(hits+misses)
system.cpu.dcache.SoftPFReq_miss_rate::.cpu.data     0.333333                       # miss rate for SoftPFReq accesses
system.cpu.dcache.SoftPFReq_miss_rate::total     0.333333                       # miss rate for SoftPFReq accesses
system.cpu.dcache.SoftPFReq_mshr_misses::.cpu.data            9                       # number of SoftPFReq MSHR misses
system.cpu.dcache.SoftPFReq_mshr_misses::total            9                       # number of SoftPFReq MSHR misses
system.cpu.dcache.SoftPFReq_mshr_miss_latency::.cpu.data       691000                       # number of SoftPFReq MSHR miss cycles
system.cpu.dcache.SoftPFReq_mshr_miss_latency::total       691000                       # number of SoftPFReq MSHR miss cycles
system.cpu.dcache.SoftPFReq_mshr_miss_rate::.cpu.data     0.272727                       # mshr miss rate for SoftPFReq accesses
system.cpu.dcache.SoftPFReq_mshr_miss_rate::total     0.272727                       # mshr miss rate for SoftPFReq accesses
system.cpu.dcache.SoftPFReq_avg_mshr_miss_latency::.cpu.data 76777.777778                       # average SoftPFReq mshr miss latency
system.cpu.dcache.SoftPFReq_avg_mshr_miss_latency::total 76777.777778                       # average SoftPFReq mshr miss latency
system.cpu.dcache.LoadLockedReq_hits::.cpu.data           18                       # number of LoadLockedReq hits
system.cpu.dcache.LoadLockedReq_hits::total           18                       # number of LoadLockedReq hits
system.cpu.dcache.LoadLockedReq_accesses::.cpu.data           18                       # number of LoadLockedReq accesses(hits+misses)
system.cpu.dcache.LoadLockedReq_accesses::total           18                       # number of LoadLockedReq accesses(hits+misses)
system.cpu.dcache.StoreCondReq_hits::.cpu.data           18                       # number of StoreCondReq hits
system.cpu.dcache.StoreCondReq_hits::total           18                       # number of StoreCondReq hits
system.cpu.dcache.StoreCondReq_accesses::.cpu.data           18                       # number of StoreCondReq accesses(hits+misses)
system.cpu.dcache.StoreCondReq_accesses::total           18                       # number of StoreCondReq accesses(hits+misses)
system.cpu.dcache.tags.pwrStateResidencyTicks::UNDEFINED    171920000                       # Cumulative time (in ticks) in various power states
system.cpu.dcache.tags.tagsinuse            97.591485                       # Cycle average of tags in use
system.cpu.dcache.tags.total_refs                3078                       # Total number of references to valid blocks.
system.cpu.dcache.tags.sampled_refs               160                       # Sample count of references to valid blocks.
system.cpu.dcache.tags.avg_refs             19.237500                       # Average number of references to valid blocks.
system.cpu.dcache.tags.warmup_cycle            263000                       # Cycle when the warmup percentage was hit.
system.cpu.dcache.tags.occ_blocks::.cpu.data    97.591485                       # Average occupied blocks per requestor
system.cpu.dcache.tags.occ_percent::.cpu.data     0.095304                       # Average percentage of cache occupancy
system.cpu.dcache.tags.occ_percent::total     0.095304                       # Average percentage of cache occupancy
system.cpu.dcache.tags.occ_task_id_blocks::1024          160                       # Occupied blocks per task id
system.cpu.dcache.tags.age_task_id_blocks_1024::0           12                       # Occupied blocks per task id
system.cpu.dcache.tags.age_task_id_blocks_1024::1           45                       # Occupied blocks per task id
system.cpu.dcache.tags.age_task_id_blocks_1024::2          103                       # Occupied blocks per task id
system.cpu.dcache.tags.occ_task_id_percent::1024     0.156250                       # Percentage of cache occupancy per task id
system.cpu.dcache.tags.tag_accesses              6404                       # Number of tag accesses
system.cpu.dcache.tags.data_accesses             6404                       # Number of data accesses
system.cpu.itb.walker.pwrStateResidencyTicks::UNDEFINED    171920000                       # Cumulative time (in ticks) in various power states
system.cpu.itb.stage2_mmu.stage2_tlb.walker.pwrStateResidencyTicks::UNDEFINED    171920000                       # Cumulative time (in ticks) in various power states

---------- End Simulation Statistics   ----------
