
---------- Begin Simulation Statistics ----------
final_tick                                   32204000                       # Number of ticks from beginning of simulation (restored from checkpoints and never reset)
host_inst_rate                                 161411                       # Simulator instruction rate (inst/s)
host_mem_usage                                 678756                       # Number of bytes of host memory used
host_op_rate                                   185258                       # Simulator op (including micro ops) rate (op/s)
host_seconds                                     0.05                       # Real time elapsed on the host
host_tick_rate                              614433662                       # Simulator tick rate (ticks/s)
sim_freq                                 1000000000000                       # Frequency of simulated ticks
sim_insts                                        8442                       # Number of instructions simulated
sim_ops                                          9707                       # Number of ops (including micro ops) simulated
sim_seconds                                  0.000032                       # Number of seconds simulated
sim_ticks                                    32204000                       # Number of ticks simulated
system.cpu.branchPred.BTBCorrect                    0                       # Number of correct BTB predictions (this stat may not work properly.
system.cpu.branchPred.BTBHitPct             25.339926                       # BTB Hit Percentage
system.cpu.branchPred.BTBHits                     615                       # Number of BTB hits
system.cpu.branchPred.BTBLookups                 2427                       # Number of BTB lookups
system.cpu.branchPred.RASInCorrect                  3                       # Number of incorrect RAS predictions.
system.cpu.branchPred.condIncorrect               518                       # Number of conditional branches incorrect
system.cpu.branchPred.condPredicted              1945                       # Number of conditional branches predicted
system.cpu.branchPred.indirectHits                 28                       # Number of indirect target hits.
system.cpu.branchPred.indirectLookups             148                       # Number of indirect predictor lookups.
system.cpu.branchPred.indirectMisses              120                       # Number of indirect misses.
system.cpu.branchPred.lookups                    2989                       # Number of BP lookups
system.cpu.branchPred.usedRAS                     268                       # Number of times the RAS was used to get a target.
system.cpu.branchPredindirectMispredicted           60                       # Number of mispredicted indirect branches.
system.cpu.committedInsts                        8442                       # Number of instructions committed
system.cpu.committedOps                          9707                       # Number of ops (including micro ops) committed
system.cpu.cpi                               7.629472                       # CPI: cycles per instruction
system.cpu.discardedOps                          1735                       # Number of ops (including micro ops) which were discarded before commit
system.cpu.dtb.accesses                             0                       # DTB accesses
system.cpu.dtb.align_faults                         0                       # Number of TLB faults due to alignment restrictions
system.cpu.dtb.domain_faults                        0                       # Number of TLB faults due to domain restrictions
system.cpu.dtb.flush_entries                        0                       # Number of entries that have been flushed from TLB
system.cpu.dtb.flush_tlb                            0                       # Number of times complete TLB was flushed
system.cpu.dtb.flush_tlb_asid                       0                       # Number of times TLB was flushed by ASID
system.cpu.dtb.flush_tlb_mva                        0                       # Number of times TLB was flushed by MVA
system.cpu.dtb.flush_tlb_mva_asid                   0                       # Number of times TLB was flushed by MVA & ASID
system.cpu.dtb.hits                                 0                       # DTB hits
system.cpu.dtb.inst_accesses                        0                       # ITB inst accesses
system.cpu.dtb.inst_hits                            0                       # ITB inst hits
system.cpu.dtb.inst_misses                          0                       # ITB inst misses
system.cpu.dtb.misses                               0                       # DTB misses
system.cpu.dtb.perms_faults                         0                       # Number of TLB faults due to permissions restrictions
system.cpu.dtb.prefetch_faults                      0                       # Number of TLB faults due to prefetch
system.cpu.dtb.read_accesses                        0                       # DTB read accesses
system.cpu.dtb.read_hits                            0                       # DTB read hits
system.cpu.dtb.read_misses                          0                       # DTB read misses
system.cpu.dtb.stage2_mmu.stage2_tlb.accesses            0                       # DTB accesses
system.cpu.dtb.stage2_mmu.stage2_tlb.align_faults            0                       # Number of TLB faults due to alignment restrictions
system.cpu.dtb.stage2_mmu.stage2_tlb.domain_faults            0                       # Number of TLB faults due to domain restrictions
system.cpu.dtb.stage2_mmu.stage2_tlb.flush_entries            0                       # Number of entries that have been flushed from TLB
system.cpu.dtb.stage2_mmu.stage2_tlb.flush_tlb            0                       # Number of times complete TLB was flushed
system.cpu.dtb.stage2_mmu.stage2_tlb.flush_tlb_asid            0                       # Number of times TLB was flushed by ASID
system.cpu.dtb.stage2_mmu.stage2_tlb.flush_tlb_mva            0                       # Number of times TLB was flushed by MVA
system.cpu.dtb.stage2_mmu.stage2_tlb.flush_tlb_mva_asid            0                       # Number of times TLB was flushed by MVA & ASID
system.cpu.dtb.stage2_mmu.stage2_tlb.hits            0                       # DTB hits
system.cpu.dtb.stage2_mmu.stage2_tlb.inst_accesses            0                       # ITB inst accesses
system.cpu.dtb.stage2_mmu.stage2_tlb.inst_hits            0                       # ITB inst hits
system.cpu.dtb.stage2_mmu.stage2_tlb.inst_misses            0                       # ITB inst misses
system.cpu.dtb.stage2_mmu.stage2_tlb.misses            0                       # DTB misses
system.cpu.dtb.stage2_mmu.stage2_tlb.perms_faults            0                       # Number of TLB faults due to permissions restrictions
system.cpu.dtb.stage2_mmu.stage2_tlb.prefetch_faults            0                       # Number of TLB faults due to prefetch
system.cpu.dtb.stage2_mmu.stage2_tlb.read_accesses            0                       # DTB read accesses
system.cpu.dtb.stage2_mmu.stage2_tlb.read_hits            0                       # DTB read hits
system.cpu.dtb.stage2_mmu.stage2_tlb.read_misses            0                       # DTB read misses
system.cpu.dtb.stage2_mmu.stage2_tlb.walker.walkRequestOrigin_Requested::Data            0                       # Table walker requests started/completed, data/inst
system.cpu.dtb.stage2_mmu.stage2_tlb.walker.walkRequestOrigin_Requested::Inst            0                       # Table walker requests started/completed, data/inst
system.cpu.dtb.stage2_mmu.stage2_tlb.walker.walkRequestOrigin_Requested::total            0                       # Table walker requests started/completed, data/inst
system.cpu.dtb.stage2_mmu.stage2_tlb.walker.walkRequestOrigin_Completed::Data            0                       # Table walker requests started/completed, data/inst
system.cpu.dtb.stage2_mmu.stage2_tlb.walker.walkRequestOrigin_Completed::Inst            0                       # Table walker requests started/completed, data/inst
system.cpu.dtb.stage2_mmu.stage2_tlb.walker.walkRequestOrigin_Completed::total            0                       # Table walker requests started/completed, data/inst
system.cpu.dtb.stage2_mmu.stage2_tlb.walker.walkRequestOrigin::total            0                       # Table walker requests started/completed, data/inst
system.cpu.dtb.stage2_mmu.stage2_tlb.walker.walks            0                       # Table walker walks requested
system.cpu.dtb.stage2_mmu.stage2_tlb.write_accesses            0                       # DTB write accesses
system.cpu.dtb.stage2_mmu.stage2_tlb.write_hits            0                       # DTB write hits
system.cpu.dtb.stage2_mmu.stage2_tlb.write_misses            0                       # DTB write misses
system.cpu.dtb.walker.walkRequestOrigin_Requested::Data            0                       # Table walker requests started/completed, data/inst
system.cpu.dtb.walker.walkRequestOrigin_Requested::Inst            0                       # Table walker requests started/completed, data/inst
system.cpu.dtb.walker.walkRequestOrigin_Requested::total            0                       # Table walker requests started/completed, data/inst
system.cpu.dtb.walker.walkRequestOrigin_Completed::Data            0                       # Table walker requests started/completed, data/inst
system.cpu.dtb.walker.walkRequestOrigin_Completed::Inst            0                       # Table walker requests started/completed, data/inst
system.cpu.dtb.walker.walkRequestOrigin_Completed::total            0                       # Table walker requests started/completed, data/inst
system.cpu.dtb.walker.walkRequestOrigin::total            0                       # Table walker requests started/completed, data/inst
system.cpu.dtb.walker.walks                         0                       # Table walker walks requested
system.cpu.dtb.write_accesses                       0                       # DTB write accesses
system.cpu.dtb.write_hits                           0                       # DTB write hits
system.cpu.dtb.write_misses                         0                       # DTB write misses
system.cpu.fetch2.amo_instructions                  0                       # Number of memory atomic instructions successfully decoded
system.cpu.fetch2.fp_instructions                   0                       # Number of floating point instructions successfully decoded
system.cpu.fetch2.int_instructions               8876                       # Number of integer instructions successfully decoded
system.cpu.fetch2.load_instructions              1995                       # Number of memory load instructions successfully decoded
system.cpu.fetch2.store_instructions             1241                       # Number of memory store instructions successfully decoded
system.cpu.fetch2.vec_instructions                  0                       # Number of SIMD instructions successfully decoded
system.cpu.idleCycles                           47666                       # Total number of cycles that the object has spent stopped
system.cpu.ipc                               0.131071                       # IPC: instructions per cycle
system.cpu.itb.accesses                             0                       # DTB accesses
system.cpu.itb.align_faults                         0                       # Number of TLB faults due to alignment restrictions
system.cpu.itb.domain_faults                        0                       # Number of TLB faults due to domain restrictions
system.cpu.itb.flush_entries                        0                       # Number of entries that have been flushed from TLB
system.cpu.itb.flush_tlb                            0                       # Number of times complete TLB was flushed
system.cpu.itb.flush_tlb_asid                       0                       # Number of times TLB was flushed by ASID
system.cpu.itb.flush_tlb_mva                        0                       # Number of times TLB was flushed by MVA
system.cpu.itb.flush_tlb_mva_asid                   0                       # Number of times TLB was flushed by MVA & ASID
system.cpu.itb.hits                                 0                       # DTB hits
system.cpu.itb.inst_accesses                        0                       # ITB inst accesses
system.cpu.itb.inst_hits                            0                       # ITB inst hits
system.cpu.itb.inst_misses                          0                       # ITB inst misses
system.cpu.itb.misses                               0                       # DTB misses
system.cpu.itb.perms_faults                         0                       # Number of TLB faults due to permissions restrictions
system.cpu.itb.prefetch_faults                      0                       # Number of TLB faults due to prefetch
system.cpu.itb.read_accesses                        0                       # DTB read accesses
system.cpu.itb.read_hits                            0                       # DTB read hits
system.cpu.itb.read_misses                          0                       # DTB read misses
system.cpu.itb.stage2_mmu.stage2_tlb.accesses            0                       # DTB accesses
system.cpu.itb.stage2_mmu.stage2_tlb.align_faults            0                       # Number of TLB faults due to alignment restrictions
system.cpu.itb.stage2_mmu.stage2_tlb.domain_faults            0                       # Number of TLB faults due to domain restrictions
system.cpu.itb.stage2_mmu.stage2_tlb.flush_entries            0                       # Number of entries that have been flushed from TLB
system.cpu.itb.stage2_mmu.stage2_tlb.flush_tlb            0                       # Number of times complete TLB was flushed
system.cpu.itb.stage2_mmu.stage2_tlb.flush_tlb_asid            0                       # Number of times TLB was flushed by ASID
system.cpu.itb.stage2_mmu.stage2_tlb.flush_tlb_mva            0                       # Number of times TLB was flushed by MVA
system.cpu.itb.stage2_mmu.stage2_tlb.flush_tlb_mva_asid            0                       # Number of times TLB was flushed by MVA & ASID
system.cpu.itb.stage2_mmu.stage2_tlb.hits            0                       # DTB hits
system.cpu.itb.stage2_mmu.stage2_tlb.inst_accesses            0                       # ITB inst accesses
system.cpu.itb.stage2_mmu.stage2_tlb.inst_hits            0                       # ITB inst hits
system.cpu.itb.stage2_mmu.stage2_tlb.inst_misses            0                       # ITB inst misses
system.cpu.itb.stage2_mmu.stage2_tlb.misses            0                       # DTB misses
system.cpu.itb.stage2_mmu.stage2_tlb.perms_faults            0                       # Number of TLB faults due to permissions restrictions
system.cpu.itb.stage2_mmu.stage2_tlb.prefetch_faults            0                       # Number of TLB faults due to prefetch
system.cpu.itb.stage2_mmu.stage2_tlb.read_accesses            0                       # DTB read accesses
system.cpu.itb.stage2_mmu.stage2_tlb.read_hits            0                       # DTB read hits
system.cpu.itb.stage2_mmu.stage2_tlb.read_misses            0                       # DTB read misses
system.cpu.itb.stage2_mmu.stage2_tlb.walker.walkRequestOrigin_Requested::Data            0                       # Table walker requests started/completed, data/inst
system.cpu.itb.stage2_mmu.stage2_tlb.walker.walkRequestOrigin_Requested::Inst            0                       # Table walker requests started/completed, data/inst
system.cpu.itb.stage2_mmu.stage2_tlb.walker.walkRequestOrigin_Requested::total            0                       # Table walker requests started/completed, data/inst
system.cpu.itb.stage2_mmu.stage2_tlb.walker.walkRequestOrigin_Completed::Data            0                       # Table walker requests started/completed, data/inst
system.cpu.itb.stage2_mmu.stage2_tlb.walker.walkRequestOrigin_Completed::Inst            0                       # Table walker requests started/completed, data/inst
system.cpu.itb.stage2_mmu.stage2_tlb.walker.walkRequestOrigin_Completed::total            0                       # Table walker requests started/completed, data/inst
system.cpu.itb.stage2_mmu.stage2_tlb.walker.walkRequestOrigin::total            0                       # Table walker requests started/completed, data/inst
system.cpu.itb.stage2_mmu.stage2_tlb.walker.walks            0                       # Table walker walks requested
system.cpu.itb.stage2_mmu.stage2_tlb.write_accesses            0                       # DTB write accesses
system.cpu.itb.stage2_mmu.stage2_tlb.write_hits            0                       # DTB write hits
system.cpu.itb.stage2_mmu.stage2_tlb.write_misses            0                       # DTB write misses
system.cpu.itb.walker.walkRequestOrigin_Requested::Data            0                       # Table walker requests started/completed, data/inst
system.cpu.itb.walker.walkRequestOrigin_Requested::Inst            0                       # Table walker requests started/completed, data/inst
system.cpu.itb.walker.walkRequestOrigin_Requested::total            0                       # Table walker requests started/completed, data/inst
system.cpu.itb.walker.walkRequestOrigin_Completed::Data            0                       # Table walker requests started/completed, data/inst
system.cpu.itb.walker.walkRequestOrigin_Completed::Inst            0                       # Table walker requests started/completed, data/inst
system.cpu.itb.walker.walkRequestOrigin_Completed::total            0                       # Table walker requests started/completed, data/inst
system.cpu.itb.walker.walkRequestOrigin::total            0                       # Table walker requests started/completed, data/inst
system.cpu.itb.walker.walks                         0                       # Table walker walks requested
system.cpu.itb.write_accesses                       0                       # DTB write accesses
system.cpu.itb.write_hits                           0                       # DTB write hits
system.cpu.itb.write_misses                         0                       # DTB write misses
system.cpu.numCycles                            64408                       # number of cpu cycles simulated
system.cpu.numFetchSuspends                         0                       # Number of times Execute suspended instruction fetching
system.cpu.numWorkItemsCompleted                    0                       # number of work items this cpu completed
system.cpu.numWorkItemsStarted                      0                       # number of work items this cpu started
system.cpu.op_class_0::No_OpClass                   0      0.00%      0.00% # Class of committed instruction
system.cpu.op_class_0::IntAlu                    6742     69.46%     69.46% # Class of committed instruction
system.cpu.op_class_0::IntMult                     45      0.46%     69.92% # Class of committed instruction
system.cpu.op_class_0::IntDiv                       0      0.00%     69.92% # Class of committed instruction
system.cpu.op_class_0::FloatAdd                     0      0.00%     69.92% # Class of committed instruction
system.cpu.op_class_0::FloatCmp                     0      0.00%     69.92% # Class of committed instruction
system.cpu.op_class_0::FloatCvt                     0      0.00%     69.92% # Class of committed instruction
system.cpu.op_class_0::FloatMult                    0      0.00%     69.92% # Class of committed instruction
system.cpu.op_class_0::FloatMultAcc                 0      0.00%     69.92% # Class of committed instruction
system.cpu.op_class_0::FloatDiv                     0      0.00%     69.92% # Class of committed instruction
system.cpu.op_class_0::FloatMisc                    0      0.00%     69.92% # Class of committed instruction
system.cpu.op_class_0::FloatSqrt                    0      0.00%     69.92% # Class of committed instruction
system.cpu.op_class_0::SimdAdd                      0      0.00%     69.92% # Class of committed instruction
system.cpu.op_class_0::SimdAddAcc                   0      0.00%     69.92% # Class of committed instruction
system.cpu.op_class_0::SimdAlu                      0      0.00%     69.92% # Class of committed instruction
system.cpu.op_class_0::SimdCmp                      0      0.00%     69.92% # Class of committed instruction
system.cpu.op_class_0::SimdCvt                      0      0.00%     69.92% # Class of committed instruction
system.cpu.op_class_0::SimdMisc                     0      0.00%     69.92% # Class of committed instruction
system.cpu.op_class_0::SimdMult                     0      0.00%     69.92% # Class of committed instruction
system.cpu.op_class_0::SimdMultAcc                  0      0.00%     69.92% # Class of committed instruction
system.cpu.op_class_0::SimdShift                    0      0.00%     69.92% # Class of committed instruction
system.cpu.op_class_0::SimdShiftAcc                 0      0.00%     69.92% # Class of committed instruction
system.cpu.op_class_0::SimdDiv                      0      0.00%     69.92% # Class of committed instruction
system.cpu.op_class_0::SimdSqrt                     0      0.00%     69.92% # Class of committed instruction
system.cpu.op_class_0::SimdFloatAdd                 0      0.00%     69.92% # Class of committed instruction
system.cpu.op_class_0::SimdFloatAlu                 0      0.00%     69.92% # Class of committed instruction
system.cpu.op_class_0::SimdFloatCmp                 0      0.00%     69.92% # Class of committed instruction
system.cpu.op_class_0::SimdFloatCvt                 0      0.00%     69.92% # Class of committed instruction
system.cpu.op_class_0::SimdFloatDiv                 0      0.00%     69.92% # Class of committed instruction
system.cpu.op_class_0::SimdFloatMisc               21      0.22%     70.13% # Class of committed instruction
system.cpu.op_class_0::SimdFloatMult                0      0.00%     70.13% # Class of committed instruction
system.cpu.op_class_0::SimdFloatMultAcc             0      0.00%     70.13% # Class of committed instruction
system.cpu.op_class_0::SimdFloatSqrt                0      0.00%     70.13% # Class of committed instruction
system.cpu.op_class_0::SimdReduceAdd                0      0.00%     70.13% # Class of committed instruction
system.cpu.op_class_0::SimdReduceAlu                0      0.00%     70.13% # Class of committed instruction
system.cpu.op_class_0::SimdReduceCmp                0      0.00%     70.13% # Class of committed instruction
system.cpu.op_class_0::SimdFloatReduceAdd            0      0.00%     70.13% # Class of committed instruction
system.cpu.op_class_0::SimdFloatReduceCmp            0      0.00%     70.13% # Class of committed instruction
system.cpu.op_class_0::SimdAes                      0      0.00%     70.13% # Class of committed instruction
system.cpu.op_class_0::SimdAesMix                   0      0.00%     70.13% # Class of committed instruction
system.cpu.op_class_0::SimdSha1Hash                 0      0.00%     70.13% # Class of committed instruction
system.cpu.op_class_0::SimdSha1Hash2                0      0.00%     70.13% # Class of committed instruction
system.cpu.op_class_0::SimdSha256Hash               0      0.00%     70.13% # Class of committed instruction
system.cpu.op_class_0::SimdSha256Hash2              0      0.00%     70.13% # Class of committed instruction
system.cpu.op_class_0::SimdShaSigma2                0      0.00%     70.13% # Class of committed instruction
system.cpu.op_class_0::SimdShaSigma3                0      0.00%     70.13% # Class of committed instruction
system.cpu.op_class_0::SimdPredAlu                  0      0.00%     70.13% # Class of committed instruction
system.cpu.op_class_0::MemRead                   1370     14.11%     84.25% # Class of committed instruction
system.cpu.op_class_0::MemWrite                  1529     15.75%    100.00% # Class of committed instruction
system.cpu.op_class_0::FloatMemRead                 0      0.00%    100.00% # Class of committed instruction
system.cpu.op_class_0::FloatMemWrite                0      0.00%    100.00% # Class of committed instruction
system.cpu.op_class_0::IprAccess                    0      0.00%    100.00% # Class of committed instruction
system.cpu.op_class_0::InstPrefetch                 0      0.00%    100.00% # Class of committed instruction
system.cpu.op_class_0::total                     9707                       # Class of committed instruction
system.cpu.tickCycles                           16742                       # Number of cycles that the object actually ticked
system.cpu.workload.numSyscalls                    10                       # Number of system calls
system.membus.snoop_filter.hit_multi_requests            6                       # Number of requests hitting in the snoop filter with multiple (>1) holders of the requested data.
system.membus.snoop_filter.hit_multi_snoops            0                       # Number of snoops hitting in the snoop filter with multiple (>1) holders of the requested data.
system.membus.snoop_filter.hit_single_requests          133                       # Number of requests hitting in the snoop filter with a single holder of the requested data.
system.membus.snoop_filter.hit_single_snoops            0                       # Number of snoops hitting in the snoop filter with a single holder of the requested data.
system.membus.snoop_filter.tot_requests           666                       # Total number of requests made to the snoop filter.
system.membus.snoop_filter.tot_snoops               0                       # Total number of snoops made to the snoop filter.
system.membus.pwrStateResidencyTicks::UNDEFINED     32204000                       # Cumulative time (in ticks) in various power states
system.membus.trans_dist::ReadResp                491                       # Transaction distribution
system.membus.trans_dist::WritebackClean          114                       # Transaction distribution
system.membus.trans_dist::ReadExReq                61                       # Transaction distribution
system.membus.trans_dist::ReadExResp               61                       # Transaction distribution
system.membus.trans_dist::ReadCleanReq            392                       # Transaction distribution
system.membus.trans_dist::ReadSharedReq            99                       # Transaction distribution
system.membus.pkt_count_system.cpu.icache.mem_side::system.mem_ctrls.port          898                       # Packet count per connected master and slave (bytes)
system.membus.pkt_count_system.cpu.dcache.mem_side::system.mem_ctrls.port          320                       # Packet count per connected master and slave (bytes)
system.membus.pkt_count::total                   1218                       # Packet count per connected master and slave (bytes)
system.membus.pkt_size_system.cpu.icache.mem_side::system.mem_ctrls.port        32384                       # Cumulative packet size per connected master and slave (bytes)
system.membus.pkt_size_system.cpu.dcache.mem_side::system.mem_ctrls.port        10240                       # Cumulative packet size per connected master and slave (bytes)
system.membus.pkt_size::total                   42624                       # Cumulative packet size per connected master and slave (bytes)
system.membus.snoops                                0                       # Total snoops (count)
system.membus.snoopTraffic                          0                       # Total snoop traffic (bytes)
system.membus.snoop_fanout::samples               552                       # Request fanout histogram
system.membus.snoop_fanout::mean             0.045290                       # Request fanout histogram
system.membus.snoop_fanout::stdev            0.208128                       # Request fanout histogram
system.membus.snoop_fanout::underflows              0      0.00%      0.00% # Request fanout histogram
system.membus.snoop_fanout::0                     527     95.47%     95.47% # Request fanout histogram
system.membus.snoop_fanout::1                      25      4.53%    100.00% # Request fanout histogram
system.membus.snoop_fanout::2                       0      0.00%    100.00% # Request fanout histogram
system.membus.snoop_fanout::overflows               0      0.00%    100.00% # Request fanout histogram
system.membus.snoop_fanout::min_value               0                       # Request fanout histogram
system.membus.snoop_fanout::max_value               1                       # Request fanout histogram
system.membus.snoop_fanout::total                 552                       # Request fanout histogram
system.membus.reqLayer0.occupancy             1199000                       # Layer occupancy (ticks)
system.membus.reqLayer0.utilization               3.7                       # Layer utilization (%)
system.membus.respLayer1.occupancy            2072249                       # Layer occupancy (ticks)
system.membus.respLayer1.utilization              6.4                       # Layer utilization (%)
system.membus.respLayer2.occupancy             858500                       # Layer occupancy (ticks)
system.membus.respLayer2.utilization              2.7                       # Layer utilization (%)
system.voltage_domain.voltage                       1                       # Voltage in Volts
system.clk_domain.clock                          1000                       # Clock period in ticks
system.cpu_voltage_domain.voltage                   1                       # Voltage in Volts
system.mem_ctrls.pwrStateResidencyTicks::UNDEFINED     32204000                       # Cumulative time (in ticks) in various power states
system.mem_ctrls.bytes_read::.cpu.inst          25088                       # Number of bytes read from this memory
system.mem_ctrls.bytes_read::.cpu.data          10240                       # Number of bytes read from this memory
system.mem_ctrls.bytes_read::total              35328                       # Number of bytes read from this memory
system.mem_ctrls.bytes_inst_read::.cpu.inst        25088                       # Number of instructions bytes read from this memory
system.mem_ctrls.bytes_inst_read::total         25088                       # Number of instructions bytes read from this memory
system.mem_ctrls.num_reads::.cpu.inst             392                       # Number of read requests responded to by this memory
system.mem_ctrls.num_reads::.cpu.data             160                       # Number of read requests responded to by this memory
system.mem_ctrls.num_reads::total                 552                       # Number of read requests responded to by this memory
system.mem_ctrls.bw_read::.cpu.inst         779033660                       # Total read bandwidth from this memory (bytes/s)
system.mem_ctrls.bw_read::.cpu.data         317972923                       # Total read bandwidth from this memory (bytes/s)
system.mem_ctrls.bw_read::total            1097006583                       # Total read bandwidth from this memory (bytes/s)
system.mem_ctrls.bw_inst_read::.cpu.inst    779033660                       # Instruction read bandwidth from this memory (bytes/s)
system.mem_ctrls.bw_inst_read::total        779033660                       # Instruction read bandwidth from this memory (bytes/s)
system.mem_ctrls.bw_total::.cpu.inst        779033660                       # Total bandwidth to/from this memory (bytes/s)
system.mem_ctrls.bw_total::.cpu.data        317972923                       # Total bandwidth to/from this memory (bytes/s)
system.mem_ctrls.bw_total::total           1097006583                       # Total bandwidth to/from this memory (bytes/s)
system.mem_ctrls.avgPriority_.writebacks::samples       104.00                       # Average QoS priority value for accepted requests
system.mem_ctrls.avgPriority_.cpu.inst::samples       365.00                       # Average QoS priority value for accepted requests
system.mem_ctrls.avgPriority_.cpu.data::samples       158.00                       # Average QoS priority value for accepted requests
system.mem_ctrls.priorityMinLatency      0.000000018750                       # per QoS priority minimum request to response latency (s)
system.mem_ctrls.priorityMaxLatency      0.000043250750                       # per QoS priority maximum request to response latency (s)
system.mem_ctrls.numReadWriteTurnArounds            5                       # Number of turnarounds from READ to WRITE
system.mem_ctrls.numWriteReadTurnArounds            5                       # Number of turnarounds from WRITE to READ
system.mem_ctrls.numStayReadState                1152                       # Number of times bus staying in READ state
system.mem_ctrls.numStayWriteState                 75                       # Number of times bus staying in WRITE state
system.mem_ctrls.readReqs                         552                       # Number of read requests accepted
system.mem_ctrls.writeReqs                        108                       # Number of write requests accepted
system.mem_ctrls.readBursts                       552                       # Number of DRAM read bursts, including those serviced by the write queue
system.mem_ctrls.writeBursts                      108                       # Number of DRAM write bursts, including those merged in the write queue
system.mem_ctrls.servicedByWrQ                     29                       # Number of DRAM read bursts serviced by the write queue
system.mem_ctrls.mergedWrBursts                     4                       # Number of DRAM write bursts merged with an existing one
system.mem_ctrls.neitherReadNorWriteReqs            0                       # Number of requests that are neither read nor write
system.mem_ctrls.perBankRdBursts::0                45                       # Per bank write bursts
system.mem_ctrls.perBankRdBursts::1                 2                       # Per bank write bursts
system.mem_ctrls.perBankRdBursts::2                36                       # Per bank write bursts
system.mem_ctrls.perBankRdBursts::3                32                       # Per bank write bursts
system.mem_ctrls.perBankRdBursts::4                54                       # Per bank write bursts
system.mem_ctrls.perBankRdBursts::5                38                       # Per bank write bursts
system.mem_ctrls.perBankRdBursts::6                65                       # Per bank write bursts
system.mem_ctrls.perBankRdBursts::7                31                       # Per bank write bursts
system.mem_ctrls.perBankRdBursts::8                30                       # Per bank write bursts
system.mem_ctrls.perBankRdBursts::9               114                       # Per bank write bursts
system.mem_ctrls.perBankRdBursts::10               17                       # Per bank write bursts
system.mem_ctrls.perBankRdBursts::11               25                       # Per bank write bursts
system.mem_ctrls.perBankRdBursts::12               15                       # Per bank write bursts
system.mem_ctrls.perBankRdBursts::13               11                       # Per bank write bursts
system.mem_ctrls.perBankRdBursts::14                8                       # Per bank write bursts
system.mem_ctrls.perBankRdBursts::15                0                       # Per bank write bursts
system.mem_ctrls.perBankWrBursts::0                17                       # Per bank write bursts
system.mem_ctrls.perBankWrBursts::1                 0                       # Per bank write bursts
system.mem_ctrls.perBankWrBursts::2                13                       # Per bank write bursts
system.mem_ctrls.perBankWrBursts::3                 4                       # Per bank write bursts
system.mem_ctrls.perBankWrBursts::4                 2                       # Per bank write bursts
system.mem_ctrls.perBankWrBursts::5                 4                       # Per bank write bursts
system.mem_ctrls.perBankWrBursts::6                22                       # Per bank write bursts
system.mem_ctrls.perBankWrBursts::7                 6                       # Per bank write bursts
system.mem_ctrls.perBankWrBursts::8                 0                       # Per bank write bursts
system.mem_ctrls.perBankWrBursts::9                 8                       # Per bank write bursts
system.mem_ctrls.perBankWrBursts::10                0                       # Per bank write bursts
system.mem_ctrls.perBankWrBursts::11                3                       # Per bank write bursts
system.mem_ctrls.perBankWrBursts::12                1                       # Per bank write bursts
system.mem_ctrls.perBankWrBursts::13                0                       # Per bank write bursts
system.mem_ctrls.perBankWrBursts::14                0                       # Per bank write bursts
system.mem_ctrls.perBankWrBursts::15                0                       # Per bank write bursts
system.mem_ctrls.avgRdQLen                       1.16                       # Average read queue length when enqueuing
system.mem_ctrls.avgWrQLen                      15.01                       # Average write queue length when enqueuing
system.mem_ctrls.totQLat                      3758250                       # Total ticks spent queuing
system.mem_ctrls.totBusLat                    2615000                       # Total ticks spent in databus transfers
system.mem_ctrls.totMemAccLat                13564500                       # Total ticks spent from burst creation until serviced by the DRAM
system.mem_ctrls.avgQLat                      7185.95                       # Average queueing delay per DRAM burst
system.mem_ctrls.avgBusLat                    5000.00                       # Average bus latency per DRAM burst
system.mem_ctrls.avgMemAccLat                25935.95                       # Average memory access latency per DRAM burst
system.mem_ctrls.numRdRetry                         0                       # Number of times read queue was full causing retry
system.mem_ctrls.numWrRetry                         0                       # Number of times write queue was full causing retry
system.mem_ctrls.readRowHits                      424                       # Number of row buffer hits during reads
system.mem_ctrls.writeRowHits                      73                       # Number of row buffer hits during writes
system.mem_ctrls.readRowHitRate                 81.07                       # Row buffer hit rate for reads
system.mem_ctrls.writeRowHitRate                70.19                       # Row buffer hit rate for writes
system.mem_ctrls.readPktSize::0                     0                       # Read request sizes (log2)
system.mem_ctrls.readPktSize::1                     0                       # Read request sizes (log2)
system.mem_ctrls.readPktSize::2                     0                       # Read request sizes (log2)
system.mem_ctrls.readPktSize::3                     0                       # Read request sizes (log2)
system.mem_ctrls.readPktSize::4                     0                       # Read request sizes (log2)
system.mem_ctrls.readPktSize::5                     0                       # Read request sizes (log2)
system.mem_ctrls.readPktSize::6                   552                       # Read request sizes (log2)
system.mem_ctrls.writePktSize::0                    0                       # Write request sizes (log2)
system.mem_ctrls.writePktSize::1                    0                       # Write request sizes (log2)
system.mem_ctrls.writePktSize::2                    0                       # Write request sizes (log2)
system.mem_ctrls.writePktSize::3                    0                       # Write request sizes (log2)
system.mem_ctrls.writePktSize::4                    0                       # Write request sizes (log2)
system.mem_ctrls.writePktSize::5                    0                       # Write request sizes (log2)
system.mem_ctrls.writePktSize::6                  108                       # Write request sizes (log2)
system.mem_ctrls.rdQLenPdf::0                     440                       # What read queue length does an incoming req see
system.mem_ctrls.rdQLenPdf::1                      77                       # What read queue length does an incoming req see
system.mem_ctrls.rdQLenPdf::2                       6                       # What read queue length does an incoming req see
system.mem_ctrls.rdQLenPdf::3                       0                       # What read queue length does an incoming req see
system.mem_ctrls.rdQLenPdf::4                       0                       # What read queue length does an incoming req see
system.mem_ctrls.rdQLenPdf::5                       0                       # What read queue length does an incoming req see
system.mem_ctrls.rdQLenPdf::6                       0                       # What read queue length does an incoming req see
system.mem_ctrls.rdQLenPdf::7                       0                       # What read queue length does an incoming req see
system.mem_ctrls.rdQLenPdf::8                       0                       # What read queue length does an incoming req see
system.mem_ctrls.rdQLenPdf::9                       0                       # What read queue length does an incoming req see
system.mem_ctrls.rdQLenPdf::10                      0                       # What read queue length does an incoming req see
system.mem_ctrls.rdQLenPdf::11                      0                       # What read queue length does an incoming req see
system.mem_ctrls.rdQLenPdf::12                      0                       # What read queue length does an incoming req see
system.mem_ctrls.rdQLenPdf::13                      0                       # What read queue length does an incoming req see
system.mem_ctrls.rdQLenPdf::14                      0                       # What read queue length does an incoming req see
system.mem_ctrls.rdQLenPdf::15                      0                       # What read queue length does an incoming req see
system.mem_ctrls.rdQLenPdf::16                      0                       # What read queue length does an incoming req see
system.mem_ctrls.rdQLenPdf::17                      0                       # What read queue length does an incoming req see
system.mem_ctrls.rdQLenPdf::18                      0                       # What read queue length does an incoming req see
system.mem_ctrls.rdQLenPdf::19                      0                       # What read queue length does an incoming req see
system.mem_ctrls.rdQLenPdf::20                      0                       # What read queue length does an incoming req see
system.mem_ctrls.rdQLenPdf::21                      0                       # What read queue length does an incoming req see
system.mem_ctrls.rdQLenPdf::22                      0                       # What read queue length does an incoming req see
system.mem_ctrls.rdQLenPdf::23                      0                       # What read queue length does an incoming req see
system.mem_ctrls.rdQLenPdf::24                      0                       # What read queue length does an incoming req see
system.mem_ctrls.rdQLenPdf::25                      0                       # What read queue length does an incoming req see
system.mem_ctrls.rdQLenPdf::26                      0                       # What read queue length does an incoming req see
system.mem_ctrls.rdQLenPdf::27                      0                       # What read queue length does an incoming req see
system.mem_ctrls.rdQLenPdf::28                      0                       # What read queue length does an incoming req see
system.mem_ctrls.rdQLenPdf::29                      0                       # What read queue length does an incoming req see
system.mem_ctrls.rdQLenPdf::30                      0                       # What read queue length does an incoming req see
system.mem_ctrls.rdQLenPdf::31                      0                       # What read queue length does an incoming req see
system.mem_ctrls.wrQLenPdf::0                       1                       # What write queue length does an incoming req see
system.mem_ctrls.wrQLenPdf::1                       1                       # What write queue length does an incoming req see
system.mem_ctrls.wrQLenPdf::2                       1                       # What write queue length does an incoming req see
system.mem_ctrls.wrQLenPdf::3                       1                       # What write queue length does an incoming req see
system.mem_ctrls.wrQLenPdf::4                       1                       # What write queue length does an incoming req see
system.mem_ctrls.wrQLenPdf::5                       1                       # What write queue length does an incoming req see
system.mem_ctrls.wrQLenPdf::6                       1                       # What write queue length does an incoming req see
system.mem_ctrls.wrQLenPdf::7                       1                       # What write queue length does an incoming req see
system.mem_ctrls.wrQLenPdf::8                       1                       # What write queue length does an incoming req see
system.mem_ctrls.wrQLenPdf::9                       1                       # What write queue length does an incoming req see
system.mem_ctrls.wrQLenPdf::10                      1                       # What write queue length does an incoming req see
system.mem_ctrls.wrQLenPdf::11                      1                       # What write queue length does an incoming req see
system.mem_ctrls.wrQLenPdf::12                      1                       # What write queue length does an incoming req see
system.mem_ctrls.wrQLenPdf::13                      1                       # What write queue length does an incoming req see
system.mem_ctrls.wrQLenPdf::14                      1                       # What write queue length does an incoming req see
system.mem_ctrls.wrQLenPdf::15                      1                       # What write queue length does an incoming req see
system.mem_ctrls.wrQLenPdf::16                      1                       # What write queue length does an incoming req see
system.mem_ctrls.wrQLenPdf::17                      5                       # What write queue length does an incoming req see
system.mem_ctrls.wrQLenPdf::18                      6                       # What write queue length does an incoming req see
system.mem_ctrls.wrQLenPdf::19                      6                       # What write queue length does an incoming req see
system.mem_ctrls.wrQLenPdf::20                      6                       # What write queue length does an incoming req see
system.mem_ctrls.wrQLenPdf::21                      7                       # What write queue length does an incoming req see
system.mem_ctrls.wrQLenPdf::22                      6                       # What write queue length does an incoming req see
system.mem_ctrls.wrQLenPdf::23                      6                       # What write queue length does an incoming req see
system.mem_ctrls.wrQLenPdf::24                      5                       # What write queue length does an incoming req see
system.mem_ctrls.wrQLenPdf::25                      5                       # What write queue length does an incoming req see
system.mem_ctrls.wrQLenPdf::26                      5                       # What write queue length does an incoming req see
system.mem_ctrls.wrQLenPdf::27                      5                       # What write queue length does an incoming req see
system.mem_ctrls.wrQLenPdf::28                      5                       # What write queue length does an incoming req see
system.mem_ctrls.wrQLenPdf::29                      5                       # What write queue length does an incoming req see
system.mem_ctrls.wrQLenPdf::30                      5                       # What write queue length does an incoming req see
system.mem_ctrls.wrQLenPdf::31                      5                       # What write queue length does an incoming req see
system.mem_ctrls.wrQLenPdf::32                      5                       # What write queue length does an incoming req see
system.mem_ctrls.wrQLenPdf::33                      0                       # What write queue length does an incoming req see
system.mem_ctrls.wrQLenPdf::34                      0                       # What write queue length does an incoming req see
system.mem_ctrls.wrQLenPdf::35                      0                       # What write queue length does an incoming req see
system.mem_ctrls.wrQLenPdf::36                      0                       # What write queue length does an incoming req see
system.mem_ctrls.wrQLenPdf::37                      0                       # What write queue length does an incoming req see
system.mem_ctrls.wrQLenPdf::38                      0                       # What write queue length does an incoming req see
system.mem_ctrls.wrQLenPdf::39                      0                       # What write queue length does an incoming req see
system.mem_ctrls.wrQLenPdf::40                      0                       # What write queue length does an incoming req see
system.mem_ctrls.wrQLenPdf::41                      0                       # What write queue length does an incoming req see
system.mem_ctrls.wrQLenPdf::42                      0                       # What write queue length does an incoming req see
system.mem_ctrls.wrQLenPdf::43                      0                       # What write queue length does an incoming req see
system.mem_ctrls.wrQLenPdf::44                      0                       # What write queue length does an incoming req see
system.mem_ctrls.wrQLenPdf::45                      0                       # What write queue length does an incoming req see
system.mem_ctrls.wrQLenPdf::46                      0                       # What write queue length does an incoming req see
system.mem_ctrls.wrQLenPdf::47                      0                       # What write queue length does an incoming req see
system.mem_ctrls.wrQLenPdf::48                      0                       # What write queue length does an incoming req see
system.mem_ctrls.wrQLenPdf::49                      0                       # What write queue length does an incoming req see
system.mem_ctrls.wrQLenPdf::50                      0                       # What write queue length does an incoming req see
system.mem_ctrls.wrQLenPdf::51                      0                       # What write queue length does an incoming req see
system.mem_ctrls.wrQLenPdf::52                      0                       # What write queue length does an incoming req see
system.mem_ctrls.wrQLenPdf::53                      0                       # What write queue length does an incoming req see
system.mem_ctrls.wrQLenPdf::54                      0                       # What write queue length does an incoming req see
system.mem_ctrls.wrQLenPdf::55                      0                       # What write queue length does an incoming req see
system.mem_ctrls.wrQLenPdf::56                      0                       # What write queue length does an incoming req see
system.mem_ctrls.wrQLenPdf::57                      0                       # What write queue length does an incoming req see
system.mem_ctrls.wrQLenPdf::58                      0                       # What write queue length does an incoming req see
system.mem_ctrls.wrQLenPdf::59                      0                       # What write queue length does an incoming req see
system.mem_ctrls.wrQLenPdf::60                      0                       # What write queue length does an incoming req see
system.mem_ctrls.wrQLenPdf::61                      0                       # What write queue length does an incoming req see
system.mem_ctrls.wrQLenPdf::62                      0                       # What write queue length does an incoming req see
system.mem_ctrls.wrQLenPdf::63                      0                       # What write queue length does an incoming req see
system.mem_ctrls.bytesPerActivate::samples          103                       # Bytes accessed per row activation
system.mem_ctrls.bytesPerActivate::mean    367.223301                       # Bytes accessed per row activation
system.mem_ctrls.bytesPerActivate::gmean   247.213198                       # Bytes accessed per row activation
system.mem_ctrls.bytesPerActivate::stdev   325.469945                       # Bytes accessed per row activation
system.mem_ctrls.bytesPerActivate::0-127           18     17.48%     17.48% # Bytes accessed per row activation
system.mem_ctrls.bytesPerActivate::128-255           29     28.16%     45.63% # Bytes accessed per row activation
system.mem_ctrls.bytesPerActivate::256-383           20     19.42%     65.05% # Bytes accessed per row activation
system.mem_ctrls.bytesPerActivate::384-511            8      7.77%     72.82% # Bytes accessed per row activation
system.mem_ctrls.bytesPerActivate::512-639            8      7.77%     80.58% # Bytes accessed per row activation
system.mem_ctrls.bytesPerActivate::640-767            2      1.94%     82.52% # Bytes accessed per row activation
system.mem_ctrls.bytesPerActivate::768-895            3      2.91%     85.44% # Bytes accessed per row activation
system.mem_ctrls.bytesPerActivate::1024-1151           15     14.56%    100.00% # Bytes accessed per row activation
system.mem_ctrls.bytesPerActivate::total          103                       # Bytes accessed per row activation
system.mem_ctrls.rdPerTurnAround::samples            5                       # Reads before turning the bus around for writes
system.mem_ctrls.rdPerTurnAround::mean     101.200000                       # Reads before turning the bus around for writes
system.mem_ctrls.rdPerTurnAround::gmean     53.036719                       # Reads before turning the bus around for writes
system.mem_ctrls.rdPerTurnAround::stdev    149.118074                       # Reads before turning the bus around for writes
system.mem_ctrls.rdPerTurnAround::16-31             2     40.00%     40.00% # Reads before turning the bus around for writes
system.mem_ctrls.rdPerTurnAround::32-47             1     20.00%     60.00% # Reads before turning the bus around for writes
system.mem_ctrls.rdPerTurnAround::48-63             1     20.00%     80.00% # Reads before turning the bus around for writes
system.mem_ctrls.rdPerTurnAround::352-367            1     20.00%    100.00% # Reads before turning the bus around for writes
system.mem_ctrls.rdPerTurnAround::total             5                       # Reads before turning the bus around for writes
system.mem_ctrls.wrPerTurnAround::samples            5                       # Writes before turning the bus around for reads
system.mem_ctrls.wrPerTurnAround::mean             16                       # Writes before turning the bus around for reads
system.mem_ctrls.wrPerTurnAround::gmean     16.000000                       # Writes before turning the bus around for reads
system.mem_ctrls.wrPerTurnAround::16                5    100.00%    100.00% # Writes before turning the bus around for reads
system.mem_ctrls.wrPerTurnAround::total             5                       # Writes before turning the bus around for reads
system.mem_ctrls.bytesReadDRAM                  33472                       # Total number of bytes read from DRAM
system.mem_ctrls.bytesReadWrQ                    1856                       # Total number of bytes read from write queue
system.mem_ctrls.bytesWritten                    5120                       # Total number of bytes written to DRAM
system.mem_ctrls.bytesReadSys                   35328                       # Total read bytes from the system interface side
system.mem_ctrls.bytesWrittenSys                 6912                       # Total written bytes from the system interface side
system.mem_ctrls.avgRdBW                      1039.37                       # Average DRAM read bandwidth in MiByte/s
system.mem_ctrls.avgWrBW                       158.99                       # Average achieved write bandwidth in MiByte/s
system.mem_ctrls.avgRdBWSys                   1097.01                       # Average system read bandwidth in MiByte/s
system.mem_ctrls.avgWrBWSys                    214.63                       # Average system write bandwidth in MiByte/s
system.mem_ctrls.peakBW                      12800.00                       # Theoretical peak bandwidth in MiByte/s
system.mem_ctrls.busUtil                         9.36                       # Data bus utilization in percentage
system.mem_ctrls.busUtilRead                     8.12                       # Data bus utilization in percentage for reads
system.mem_ctrls.busUtilWrite                    1.24                       # Data bus utilization in percentage for writes
system.mem_ctrls.totGap                      32195500                       # Total gap between requests
system.mem_ctrls.avgGap                      48781.06                       # Average gap between requests
system.mem_ctrls.masterReadBytes::.cpu.inst        23360                       # Per-master bytes read from memory
system.mem_ctrls.masterReadBytes::.cpu.data        10112                       # Per-master bytes read from memory
system.mem_ctrls.masterWriteBytes::.writebacks         5120                       # Per-master bytes write to memory
system.mem_ctrls.masterReadRate::.cpu.inst 725375729.723015785217                       # Per-master bytes read from memory rate (Bytes/sec)
system.mem_ctrls.masterReadRate::.cpu.data 313998261.085579454899                       # Per-master bytes read from memory rate (Bytes/sec)
system.mem_ctrls.masterWriteRate::.writebacks 158986461.309154152870                       # Per-master bytes write to memory rate (Bytes/sec)
system.mem_ctrls.masterReadAccesses::.cpu.inst          392                       # Per-master read serviced memory accesses
system.mem_ctrls.masterReadAccesses::.cpu.data          160                       # Per-master read serviced memory accesses
system.mem_ctrls.masterWriteAccesses::.writebacks          108                       # Per-master write serviced memory accesses
system.mem_ctrls.masterReadTotalLat::.cpu.inst      9026750                       # Per-master read total memory access latency
system.mem_ctrls.masterReadTotalLat::.cpu.data      4537750                       # Per-master read total memory access latency
system.mem_ctrls.masterWriteTotalLat::.writebacks    415412250                       # Per-master write total memory access latency
system.mem_ctrls.masterReadAvgLat::.cpu.inst     23027.42                       # Per-master read average memory access latency
system.mem_ctrls.masterReadAvgLat::.cpu.data     28360.94                       # Per-master read average memory access latency
system.mem_ctrls.masterWriteAvgLat::.writebacks   3846409.72                       # Per-master write average memory access latency
system.mem_ctrls.pageHitRate                    79.27                       # Row buffer hit rate, read and write combined
system.mem_ctrls.rank1.actEnergy               385560                       # Energy for activate commands per rank (pJ)
system.mem_ctrls.rank1.preEnergy               201135                       # Energy for precharge commands per rank (pJ)
system.mem_ctrls.rank1.readEnergy             1570800                       # Energy for read commands per rank (pJ)
system.mem_ctrls.rank1.writeEnergy              62640                       # Energy for write commands per rank (pJ)
system.mem_ctrls.rank1.refreshEnergy     2458560.000000                       # Energy for refresh commands per rank (pJ)
system.mem_ctrls.rank1.actBackEnergy         14264820                       # Energy for active background per rank (pJ)
system.mem_ctrls.rank1.preBackEnergy           354240                       # Energy for precharge background per rank (pJ)
system.mem_ctrls.rank1.actPowerDownEnergy            0                       # Energy for active power-down per rank (pJ)
system.mem_ctrls.rank1.prePowerDownEnergy            0                       # Energy for precharge power-down per rank (pJ)
system.mem_ctrls.rank1.selfRefreshEnergy            0                       # Energy for self refresh per rank (pJ)
system.mem_ctrls.rank1.totalEnergy           19297755                       # Total energy per rank (pJ)
system.mem_ctrls.rank1.averagePower        599.234722                       # Core power per rank (mW)
system.mem_ctrls.rank1.totalIdleTime                0                       # Total Idle time Per DRAM Rank
system.mem_ctrls.rank1.memoryStateTime::IDLE       810250                       # Time in different power states
system.mem_ctrls.rank1.memoryStateTime::REF      1040000                       # Time in different power states
system.mem_ctrls.rank1.memoryStateTime::SREF            0                       # Time in different power states
system.mem_ctrls.rank1.memoryStateTime::PRE_PDN            0                       # Time in different power states
system.mem_ctrls.rank1.memoryStateTime::ACT     30353750                       # Time in different power states
system.mem_ctrls.rank1.memoryStateTime::ACT_PDN            0                       # Time in different power states
system.mem_ctrls.rank0.actEnergy               371280                       # Energy for activate commands per rank (pJ)
system.mem_ctrls.rank0.preEnergy               189750                       # Energy for precharge commands per rank (pJ)
system.mem_ctrls.rank0.readEnergy             2163420                       # Energy for read commands per rank (pJ)
system.mem_ctrls.rank0.writeEnergy             354960                       # Energy for write commands per rank (pJ)
system.mem_ctrls.rank0.refreshEnergy     2458560.000000                       # Energy for refresh commands per rank (pJ)
system.mem_ctrls.rank0.actBackEnergy         14411310                       # Energy for active background per rank (pJ)
system.mem_ctrls.rank0.preBackEnergy           230880                       # Energy for precharge background per rank (pJ)
system.mem_ctrls.rank0.actPowerDownEnergy            0                       # Energy for active power-down per rank (pJ)
system.mem_ctrls.rank0.prePowerDownEnergy            0                       # Energy for precharge power-down per rank (pJ)
system.mem_ctrls.rank0.selfRefreshEnergy            0                       # Energy for self refresh per rank (pJ)
system.mem_ctrls.rank0.totalEnergy           20180160                       # Total energy per rank (pJ)
system.mem_ctrls.rank0.averagePower        626.635201                       # Core power per rank (mW)
system.mem_ctrls.rank0.totalIdleTime                0                       # Total Idle time Per DRAM Rank
system.mem_ctrls.rank0.memoryStateTime::IDLE       474500                       # Time in different power states
system.mem_ctrls.rank0.memoryStateTime::REF      1040000                       # Time in different power states
system.mem_ctrls.rank0.memoryStateTime::SREF            0                       # Time in different power states
system.mem_ctrls.rank0.memoryStateTime::PRE_PDN            0                       # Time in different power states
system.mem_ctrls.rank0.memoryStateTime::ACT     30689500                       # Time in different power states
system.mem_ctrls.rank0.memoryStateTime::ACT_PDN            0                       # Time in different power states
system.cpu_clk_domain.clock                       500                       # Clock period in ticks
system.cpu.pwrStateResidencyTicks::ON        32204000                       # Cumulative time (in ticks) in various power states
system.cpu.icache.pwrStateResidencyTicks::UNDEFINED     32204000                       # Cumulative time (in ticks) in various power states
system.cpu.icache.demand_hits::.cpu.inst         3097                       # number of demand (read+write) hits
system.cpu.icache.demand_hits::total             3097                       # number of demand (read+write) hits
system.cpu.icache.overall_hits::.cpu.inst         3097                       # number of overall hits
system.cpu.icache.overall_hits::total            3097                       # number of overall hits
system.cpu.icache.demand_misses::.cpu.inst          392                       # number of demand (read+write) misses
system.cpu.icache.demand_misses::total            392                       # number of demand (read+write) misses
system.cpu.icache.overall_misses::.cpu.inst          392                       # number of overall misses
system.cpu.icache.overall_misses::total           392                       # number of overall misses
system.cpu.icache.demand_miss_latency::.cpu.inst     21641500                       # number of demand (read+write) miss cycles
system.cpu.icache.demand_miss_latency::total     21641500                       # number of demand (read+write) miss cycles
system.cpu.icache.overall_miss_latency::.cpu.inst     21641500                       # number of overall miss cycles
system.cpu.icache.overall_miss_latency::total     21641500                       # number of overall miss cycles
system.cpu.icache.demand_accesses::.cpu.inst         3489                       # number of demand (read+write) accesses
system.cpu.icache.demand_accesses::total         3489                       # number of demand (read+write) accesses
system.cpu.icache.overall_accesses::.cpu.inst         3489                       # number of overall (read+write) accesses
system.cpu.icache.overall_accesses::total         3489                       # number of overall (read+write) accesses
system.cpu.icache.demand_miss_rate::.cpu.inst     0.112353                       # miss rate for demand accesses
system.cpu.icache.demand_miss_rate::total     0.112353                       # miss rate for demand accesses
system.cpu.icache.overall_miss_rate::.cpu.inst     0.112353                       # miss rate for overall accesses
system.cpu.icache.overall_miss_rate::total     0.112353                       # miss rate for overall accesses
system.cpu.icache.demand_avg_miss_latency::.cpu.inst 55207.908163                       # average overall miss latency
system.cpu.icache.demand_avg_miss_latency::total 55207.908163                       # average overall miss latency
system.cpu.icache.overall_avg_miss_latency::.cpu.inst 55207.908163                       # average overall miss latency
system.cpu.icache.overall_avg_miss_latency::total 55207.908163                       # average overall miss latency
system.cpu.icache.blocked_cycles::no_mshrs            0                       # number of cycles access was blocked
system.cpu.icache.blocked_cycles::no_targets            0                       # number of cycles access was blocked
system.cpu.icache.blocked::no_mshrs                 0                       # number of cycles access was blocked
system.cpu.icache.blocked::no_targets               0                       # number of cycles access was blocked
system.cpu.icache.avg_blocked_cycles::no_mshrs          nan                       # average number of cycles each access was blocked
system.cpu.icache.avg_blocked_cycles::no_targets          nan                       # average number of cycles each access was blocked
system.cpu.icache.writebacks::.writebacks          114                       # number of writebacks
system.cpu.icache.writebacks::total               114                       # number of writebacks
system.cpu.icache.demand_mshr_misses::.cpu.inst          392                       # number of demand (read+write) MSHR misses
system.cpu.icache.demand_mshr_misses::total          392                       # number of demand (read+write) MSHR misses
system.cpu.icache.overall_mshr_misses::.cpu.inst          392                       # number of overall MSHR misses
system.cpu.icache.overall_mshr_misses::total          392                       # number of overall MSHR misses
system.cpu.icache.demand_mshr_miss_latency::.cpu.inst     21249500                       # number of demand (read+write) MSHR miss cycles
system.cpu.icache.demand_mshr_miss_latency::total     21249500                       # number of demand (read+write) MSHR miss cycles
system.cpu.icache.overall_mshr_miss_latency::.cpu.inst     21249500                       # number of overall MSHR miss cycles
system.cpu.icache.overall_mshr_miss_latency::total     21249500                       # number of overall MSHR miss cycles
system.cpu.icache.demand_mshr_miss_rate::.cpu.inst     0.112353                       # mshr miss rate for demand accesses
system.cpu.icache.demand_mshr_miss_rate::total     0.112353                       # mshr miss rate for demand accesses
system.cpu.icache.overall_mshr_miss_rate::.cpu.inst     0.112353                       # mshr miss rate for overall accesses
system.cpu.icache.overall_mshr_miss_rate::total     0.112353                       # mshr miss rate for overall accesses
system.cpu.icache.demand_avg_mshr_miss_latency::.cpu.inst 54207.908163                       # average overall mshr miss latency
system.cpu.icache.demand_avg_mshr_miss_latency::total 54207.908163                       # average overall mshr miss latency
system.cpu.icache.overall_avg_mshr_miss_latency::.cpu.inst 54207.908163                       # average overall mshr miss latency
system.cpu.icache.overall_avg_mshr_miss_latency::total 54207.908163                       # average overall mshr miss latency
system.cpu.icache.replacements                    114                       # number of replacements
system.cpu.icache.ReadReq_hits::.cpu.inst         3097                       # number of ReadReq hits
system.cpu.icache.ReadReq_hits::total            3097                       # number of ReadReq hits
system.cpu.icache.ReadReq_misses::.cpu.inst          392                       # number of ReadReq misses
system.cpu.icache.ReadReq_misses::total           392                       # number of ReadReq misses
system.cpu.icache.ReadReq_miss_latency::.cpu.inst     21641500                       # number of ReadReq miss cycles
system.cpu.icache.ReadReq_miss_latency::total     21641500                       # number of ReadReq miss cycles
system.cpu.icache.ReadReq_accesses::.cpu.inst         3489                       # number of ReadReq accesses(hits+misses)
system.cpu.icache.ReadReq_accesses::total         3489                       # number of ReadReq accesses(hits+misses)
system.cpu.icache.ReadReq_miss_rate::.cpu.inst     0.112353                       # miss rate for ReadReq accesses
system.cpu.icache.ReadReq_miss_rate::total     0.112353                       # miss rate for ReadReq accesses
system.cpu.icache.ReadReq_avg_miss_latency::.cpu.inst 55207.908163                       # average ReadReq miss latency
system.cpu.icache.ReadReq_avg_miss_latency::total 55207.908163                       # average ReadReq miss latency
system.cpu.icache.ReadReq_mshr_misses::.cpu.inst          392                       # number of ReadReq MSHR misses
system.cpu.icache.ReadReq_mshr_misses::total          392                       # number of ReadReq MSHR misses
system.cpu.icache.ReadReq_mshr_miss_latency::.cpu.inst     21249500                       # number of ReadReq MSHR miss cycles
system.cpu.icache.ReadReq_mshr_miss_latency::total     21249500                       # number of ReadReq MSHR miss cycles
system.cpu.icache.ReadReq_mshr_miss_rate::.cpu.inst     0.112353                       # mshr miss rate for ReadReq accesses
system.cpu.icache.ReadReq_mshr_miss_rate::total     0.112353                       # mshr miss rate for ReadReq accesses
system.cpu.icache.ReadReq_avg_mshr_miss_latency::.cpu.inst 54207.908163                       # average ReadReq mshr miss latency
system.cpu.icache.ReadReq_avg_mshr_miss_latency::total 54207.908163                       # average ReadReq mshr miss latency
system.cpu.icache.tags.pwrStateResidencyTicks::UNDEFINED     32204000                       # Cumulative time (in ticks) in various power states
system.cpu.icache.tags.tagsinuse           163.200351                       # Cycle average of tags in use
system.cpu.icache.tags.total_refs                3489                       # Total number of references to valid blocks.
system.cpu.icache.tags.sampled_refs               392                       # Sample count of references to valid blocks.
system.cpu.icache.tags.avg_refs              8.900510                       # Average number of references to valid blocks.
system.cpu.icache.tags.warmup_cycle             77000                       # Cycle when the warmup percentage was hit.
system.cpu.icache.tags.occ_blocks::.cpu.inst   163.200351                       # Average occupied blocks per requestor
system.cpu.icache.tags.occ_percent::.cpu.inst     0.318751                       # Average percentage of cache occupancy
system.cpu.icache.tags.occ_percent::total     0.318751                       # Average percentage of cache occupancy
system.cpu.icache.tags.occ_task_id_blocks::1024          278                       # Occupied blocks per task id
system.cpu.icache.tags.age_task_id_blocks_1024::0          114                       # Occupied blocks per task id
system.cpu.icache.tags.age_task_id_blocks_1024::1          164                       # Occupied blocks per task id
system.cpu.icache.tags.occ_task_id_percent::1024     0.542969                       # Percentage of cache occupancy per task id
system.cpu.icache.tags.tag_accesses              7370                       # Number of tag accesses
system.cpu.icache.tags.data_accesses             7370                       # Number of data accesses
system.cpu.dtb.walker.pwrStateResidencyTicks::UNDEFINED     32204000                       # Cumulative time (in ticks) in various power states
system.cpu.dtb.stage2_mmu.stage2_tlb.walker.pwrStateResidencyTicks::UNDEFINED     32204000                       # Cumulative time (in ticks) in various power states
system.cpu.dcache.pwrStateResidencyTicks::UNDEFINED     32204000                       # Cumulative time (in ticks) in various power states
system.cpu.dcache.demand_hits::.cpu.data         2841                       # number of demand (read+write) hits
system.cpu.dcache.demand_hits::total             2841                       # number of demand (read+write) hits
system.cpu.dcache.overall_hits::.cpu.data         2862                       # number of overall hits
system.cpu.dcache.overall_hits::total            2862                       # number of overall hits
system.cpu.dcache.demand_misses::.cpu.data          199                       # number of demand (read+write) misses
system.cpu.dcache.demand_misses::total            199                       # number of demand (read+write) misses
system.cpu.dcache.overall_misses::.cpu.data          211                       # number of overall misses
system.cpu.dcache.overall_misses::total           211                       # number of overall misses
system.cpu.dcache.demand_miss_latency::.cpu.data     12126500                       # number of demand (read+write) miss cycles
system.cpu.dcache.demand_miss_latency::total     12126500                       # number of demand (read+write) miss cycles
system.cpu.dcache.overall_miss_latency::.cpu.data     12126500                       # number of overall miss cycles
system.cpu.dcache.overall_miss_latency::total     12126500                       # number of overall miss cycles
system.cpu.dcache.demand_accesses::.cpu.data         3040                       # number of demand (read+write) accesses
system.cpu.dcache.demand_accesses::total         3040                       # number of demand (read+write) accesses
system.cpu.dcache.overall_accesses::.cpu.data         3073                       # number of overall (read+write) accesses
system.cpu.dcache.overall_accesses::total         3073                       # number of overall (read+write) accesses
system.cpu.dcache.demand_miss_rate::.cpu.data     0.065461                       # miss rate for demand accesses
system.cpu.dcache.demand_miss_rate::total     0.065461                       # miss rate for demand accesses
system.cpu.dcache.overall_miss_rate::.cpu.data     0.068663                       # miss rate for overall accesses
system.cpu.dcache.overall_miss_rate::total     0.068663                       # miss rate for overall accesses
system.cpu.dcache.demand_avg_miss_latency::.cpu.data 60937.185930                       # average overall miss latency
system.cpu.dcache.demand_avg_miss_latency::total 60937.185930                       # average overall miss latency
system.cpu.dcache.overall_avg_miss_latency::.cpu.data 57471.563981                       # average overall miss latency
system.cpu.dcache.overall_avg_miss_latency::total 57471.563981                       # average overall miss latency
system.cpu.dcache.blocked_cycles::no_mshrs            0                       # number of cycles access was blocked
system.cpu.dcache.blocked_cycles::no_targets            0                       # number of cycles access was blocked
system.cpu.dcache.blocked::no_mshrs                 0                       # number of cycles access was blocked
system.cpu.dcache.blocked::no_targets               0                       # number of cycles access was blocked
system.cpu.dcache.avg_blocked_cycles::no_mshrs          nan                       # average number of cycles each access was blocked
system.cpu.dcache.avg_blocked_cycles::no_targets          nan                       # average number of cycles each access was blocked
system.cpu.dcache.demand_mshr_hits::.cpu.data           48                       # number of demand (read+write) MSHR hits
system.cpu.dcache.demand_mshr_hits::total           48                       # number of demand (read+write) MSHR hits
system.cpu.dcache.overall_mshr_hits::.cpu.data           48                       # number of overall MSHR hits
system.cpu.dcache.overall_mshr_hits::total           48                       # number of overall MSHR hits
system.cpu.dcache.demand_mshr_misses::.cpu.data          151                       # number of demand (read+write) MSHR misses
system.cpu.dcache.demand_mshr_misses::total          151                       # number of demand (read+write) MSHR misses
system.cpu.dcache.overall_mshr_misses::.cpu.data          160                       # number of overall MSHR misses
system.cpu.dcache.overall_mshr_misses::total          160                       # number of overall MSHR misses
system.cpu.dcache.demand_mshr_miss_latency::.cpu.data      9072000                       # number of demand (read+write) MSHR miss cycles
system.cpu.dcache.demand_mshr_miss_latency::total      9072000                       # number of demand (read+write) MSHR miss cycles
system.cpu.dcache.overall_mshr_miss_latency::.cpu.data      9606000                       # number of overall MSHR miss cycles
system.cpu.dcache.overall_mshr_miss_latency::total      9606000                       # number of overall MSHR miss cycles
system.cpu.dcache.demand_mshr_miss_rate::.cpu.data     0.049671                       # mshr miss rate for demand accesses
system.cpu.dcache.demand_mshr_miss_rate::total     0.049671                       # mshr miss rate for demand accesses
system.cpu.dcache.overall_mshr_miss_rate::.cpu.data     0.052066                       # mshr miss rate for overall accesses
system.cpu.dcache.overall_mshr_miss_rate::total     0.052066                       # mshr miss rate for overall accesses
system.cpu.dcache.demand_avg_mshr_miss_latency::.cpu.data 60079.470199                       # average overall mshr miss latency
system.cpu.dcache.demand_avg_mshr_miss_latency::total 60079.470199                       # average overall mshr miss latency
system.cpu.dcache.overall_avg_mshr_miss_latency::.cpu.data 60037.500000                       # average overall mshr miss latency
system.cpu.dcache.overall_avg_mshr_miss_latency::total 60037.500000                       # average overall mshr miss latency
system.cpu.dcache.replacements                      0                       # number of replacements
system.cpu.dcache.ReadReq_hits::.cpu.data         1462                       # number of ReadReq hits
system.cpu.dcache.ReadReq_hits::total            1462                       # number of ReadReq hits
system.cpu.dcache.ReadReq_misses::.cpu.data           96                       # number of ReadReq misses
system.cpu.dcache.ReadReq_misses::total            96                       # number of ReadReq misses
system.cpu.dcache.ReadReq_miss_latency::.cpu.data      5762500                       # number of ReadReq miss cycles
system.cpu.dcache.ReadReq_miss_latency::total      5762500                       # number of ReadReq miss cycles
system.cpu.dcache.ReadReq_accesses::.cpu.data         1558                       # number of ReadReq accesses(hits+misses)
system.cpu.dcache.ReadReq_accesses::total         1558                       # number of ReadReq accesses(hits+misses)
system.cpu.dcache.ReadReq_miss_rate::.cpu.data     0.061617                       # miss rate for ReadReq accesses
system.cpu.dcache.ReadReq_miss_rate::total     0.061617                       # miss rate for ReadReq accesses
system.cpu.dcache.ReadReq_avg_miss_latency::.cpu.data 60026.041667                       # average ReadReq miss latency
system.cpu.dcache.ReadReq_avg_miss_latency::total 60026.041667                       # average ReadReq miss latency
system.cpu.dcache.ReadReq_mshr_hits::.cpu.data            6                       # number of ReadReq MSHR hits
system.cpu.dcache.ReadReq_mshr_hits::total            6                       # number of ReadReq MSHR hits
system.cpu.dcache.ReadReq_mshr_misses::.cpu.data           90                       # number of ReadReq MSHR misses
system.cpu.dcache.ReadReq_mshr_misses::total           90                       # number of ReadReq MSHR misses
system.cpu.dcache.ReadReq_mshr_miss_latency::.cpu.data      5375500                       # number of ReadReq MSHR miss cycles
system.cpu.dcache.ReadReq_mshr_miss_latency::total      5375500                       # number of ReadReq MSHR miss cycles
system.cpu.dcache.ReadReq_mshr_miss_rate::.cpu.data     0.057766                       # mshr miss rate for ReadReq accesses
system.cpu.dcache.ReadReq_mshr_miss_rate::total     0.057766                       # mshr miss rate for ReadReq accesses
system.cpu.dcache.ReadReq_avg_mshr_miss_latency::.cpu.data 59727.777778                       # average ReadReq mshr miss latency
system.cpu.dcache.ReadReq_avg_mshr_miss_latency::total 59727.777778                       # average ReadReq mshr miss latency
system.cpu.dcache.WriteReq_hits::.cpu.data         1379                       # number of WriteReq hits
system.cpu.dcache.WriteReq_hits::total           1379                       # number of WriteReq hits
system.cpu.dcache.WriteReq_misses::.cpu.data          103                       # number of WriteReq misses
system.cpu.dcache.WriteReq_misses::total          103                       # number of WriteReq misses
system.cpu.dcache.WriteReq_miss_latency::.cpu.data      6364000                       # number of WriteReq miss cycles
system.cpu.dcache.WriteReq_miss_latency::total      6364000                       # number of WriteReq miss cycles
system.cpu.dcache.WriteReq_accesses::.cpu.data         1482                       # number of WriteReq accesses(hits+misses)
system.cpu.dcache.WriteReq_accesses::total         1482                       # number of WriteReq accesses(hits+misses)
system.cpu.dcache.WriteReq_miss_rate::.cpu.data     0.069501                       # miss rate for WriteReq accesses
system.cpu.dcache.WriteReq_miss_rate::total     0.069501                       # miss rate for WriteReq accesses
system.cpu.dcache.WriteReq_avg_miss_latency::.cpu.data 61786.407767                       # average WriteReq miss latency
system.cpu.dcache.WriteReq_avg_miss_latency::total 61786.407767                       # average WriteReq miss latency
system.cpu.dcache.WriteReq_mshr_hits::.cpu.data           42                       # number of WriteReq MSHR hits
system.cpu.dcache.WriteReq_mshr_hits::total           42                       # number of WriteReq MSHR hits
system.cpu.dcache.WriteReq_mshr_misses::.cpu.data           61                       # number of WriteReq MSHR misses
system.cpu.dcache.WriteReq_mshr_misses::total           61                       # number of WriteReq MSHR misses
system.cpu.dcache.WriteReq_mshr_miss_latency::.cpu.data      3696500                       # number of WriteReq MSHR miss cycles
system.cpu.dcache.WriteReq_mshr_miss_latency::total      3696500                       # number of WriteReq MSHR miss cycles
system.cpu.dcache.WriteReq_mshr_miss_rate::.cpu.data     0.041161                       # mshr miss rate for WriteReq accesses
system.cpu.dcache.WriteReq_mshr_miss_rate::total     0.041161                       # mshr miss rate for WriteReq accesses
system.cpu.dcache.WriteReq_avg_mshr_miss_latency::.cpu.data 60598.360656                       # average WriteReq mshr miss latency
system.cpu.dcache.WriteReq_avg_mshr_miss_latency::total 60598.360656                       # average WriteReq mshr miss latency
system.cpu.dcache.SoftPFReq_hits::.cpu.data           21                       # number of SoftPFReq hits
system.cpu.dcache.SoftPFReq_hits::total            21                       # number of SoftPFReq hits
system.cpu.dcache.SoftPFReq_misses::.cpu.data           12                       # number of SoftPFReq misses
system.cpu.dcache.SoftPFReq_misses::total           12                       # number of SoftPFReq misses
system.cpu.dcache.SoftPFReq_accesses::.cpu.data           33                       # number of SoftPFReq accesses(hits+misses)
system.cpu.dcache.SoftPFReq_accesses::total           33                       # number of SoftPFReq accesses(hits+misses)
system.cpu.dcache.SoftPFReq_miss_rate::.cpu.data     0.363636                       # miss rate for SoftPFReq accesses
system.cpu.dcache.SoftPFReq_miss_rate::total     0.363636                       # miss rate for SoftPFReq accesses
system.cpu.dcache.SoftPFReq_mshr_misses::.cpu.data            9                       # number of SoftPFReq MSHR misses
system.cpu.dcache.SoftPFReq_mshr_misses::total            9                       # number of SoftPFReq MSHR misses
system.cpu.dcache.SoftPFReq_mshr_miss_latency::.cpu.data       534000                       # number of SoftPFReq MSHR miss cycles
system.cpu.dcache.SoftPFReq_mshr_miss_latency::total       534000                       # number of SoftPFReq MSHR miss cycles
system.cpu.dcache.SoftPFReq_mshr_miss_rate::.cpu.data     0.272727                       # mshr miss rate for SoftPFReq accesses
system.cpu.dcache.SoftPFReq_mshr_miss_rate::total     0.272727                       # mshr miss rate for SoftPFReq accesses
system.cpu.dcache.SoftPFReq_avg_mshr_miss_latency::.cpu.data 59333.333333                       # average SoftPFReq mshr miss latency
system.cpu.dcache.SoftPFReq_avg_mshr_miss_latency::total 59333.333333                       # average SoftPFReq mshr miss latency
system.cpu.dcache.LoadLockedReq_hits::.cpu.data           18                       # number of LoadLockedReq hits
system.cpu.dcache.LoadLockedReq_hits::total           18                       # number of LoadLockedReq hits
system.cpu.dcache.LoadLockedReq_accesses::.cpu.data           18                       # number of LoadLockedReq accesses(hits+misses)
system.cpu.dcache.LoadLockedReq_accesses::total           18                       # number of LoadLockedReq accesses(hits+misses)
system.cpu.dcache.StoreCondReq_hits::.cpu.data           18                       # number of StoreCondReq hits
system.cpu.dcache.StoreCondReq_hits::total           18                       # number of StoreCondReq hits
system.cpu.dcache.StoreCondReq_accesses::.cpu.data           18                       # number of StoreCondReq accesses(hits+misses)
system.cpu.dcache.StoreCondReq_accesses::total           18                       # number of StoreCondReq accesses(hits+misses)
system.cpu.dcache.tags.pwrStateResidencyTicks::UNDEFINED     32204000                       # Cumulative time (in ticks) in various power states
system.cpu.dcache.tags.tagsinuse            93.814839                       # Cycle average of tags in use
system.cpu.dcache.tags.total_refs                3058                       # Total number of references to valid blocks.
system.cpu.dcache.tags.sampled_refs               160                       # Sample count of references to valid blocks.
system.cpu.dcache.tags.avg_refs             19.112500                       # Average number of references to valid blocks.
system.cpu.dcache.tags.warmup_cycle            145000                       # Cycle when the warmup percentage was hit.
system.cpu.dcache.tags.occ_blocks::.cpu.data    93.814839                       # Average occupied blocks per requestor
system.cpu.dcache.tags.occ_percent::.cpu.data     0.091616                       # Average percentage of cache occupancy
system.cpu.dcache.tags.occ_percent::total     0.091616                       # Average percentage of cache occupancy
system.cpu.dcache.tags.occ_task_id_blocks::1024          160                       # Occupied blocks per task id
system.cpu.dcache.tags.age_task_id_blocks_1024::0           31                       # Occupied blocks per task id
system.cpu.dcache.tags.age_task_id_blocks_1024::1          129                       # Occupied blocks per task id
system.cpu.dcache.tags.occ_task_id_percent::1024     0.156250                       # Percentage of cache occupancy per task id
system.cpu.dcache.tags.tag_accesses              6378                       # Number of tag accesses
system.cpu.dcache.tags.data_accesses             6378                       # Number of data accesses
system.cpu.itb.walker.pwrStateResidencyTicks::UNDEFINED     32204000                       # Cumulative time (in ticks) in various power states
system.cpu.itb.stage2_mmu.stage2_tlb.walker.pwrStateResidencyTicks::UNDEFINED     32204000                       # Cumulative time (in ticks) in various power states

---------- End Simulation Statistics   ----------
